[Format]      =  4.0
[Frequency]   =  0
[Precision]   =  1e-008
[MinAngle]    =  10
[DoSmartMesh] =  0
[Depth]       =  0.10000000000000001
[LengthUnits] =  meters
[ProblemType] =  planar
[Coordinates] =  cartesian
[ACSolver]    =  0
[PrevType]    =  0
[PrevSoln]    =  ""
[Comment]     =  "Add comments here."
[PointProps]   = 0
[BdryProps]   = 11
  <BeginBdry>
    <BdryName> = "Azero"
    <BdryType> = 0
    <A_0> = 0
    <A_1> = 0
    <A_2> = 0
    <Phi> = 0
    <c0> = 0
    <c0i> = 0
    <c1> = 0
    <c1i> = 0
    <Mu_ssd> = 0
    <Sigma_ssd> = 0
    <innerangle> = 0
    <outerangle> = 0
  <EndBdry>
  <BeginBdry>
    <BdryName> = "sPA1"
    <BdryType> = 4
    <A_0> = 0
    <A_1> = 0
    <A_2> = 0
    <Phi> = 0
    <c0> = 0
    <c0i> = 0
    <c1> = 0
    <c1i> = 0
    <Mu_ssd> = 0
    <Sigma_ssd> = 0
    <innerangle> = 0
    <outerangle> = 0
  <EndBdry>
  <BeginBdry>
    <BdryName> = "sPA2"
    <BdryType> = 4
    <A_0> = 0
    <A_1> = 0
    <A_2> = 0
    <Phi> = 0
    <c0> = 0
    <c0i> = 0
    <c1> = 0
    <c1i> = 0
    <Mu_ssd> = 0
    <Sigma_ssd> = 0
    <innerangle> = 0
    <outerangle> = 0
  <EndBdry>
  <BeginBdry>
    <BdryName> = "sPA3"
    <BdryType> = 4
    <A_0> = 0
    <A_1> = 0
    <A_2> = 0
    <Phi> = 0
    <c0> = 0
    <c0i> = 0
    <c1> = 0
    <c1i> = 0
    <Mu_ssd> = 0
    <Sigma_ssd> = 0
    <innerangle> = 0
    <outerangle> = 0
  <EndBdry>
  <BeginBdry>
    <BdryName> = "sPA4"
    <BdryType> = 4
    <A_0> = 0
    <A_1> = 0
    <A_2> = 0
    <Phi> = 0
    <c0> = 0
    <c0i> = 0
    <c1> = 0
    <c1i> = 0
    <Mu_ssd> = 0
    <Sigma_ssd> = 0
    <innerangle> = 0
    <outerangle> = 0
  <EndBdry>
  <BeginBdry>
    <BdryName> = "sPA5"
    <BdryType> = 4
    <A_0> = 0
    <A_1> = 0
    <A_2> = 0
    <Phi> = 0
    <c0> = 0
    <c0i> = 0
    <c1> = 0
    <c1i> = 0
    <Mu_ssd> = 0
    <Sigma_ssd> = 0
    <innerangle> = 0
    <outerangle> = 0
  <EndBdry>
  <BeginBdry>
    <BdryName> = "rPA1"
    <BdryType> = 4
    <A_0> = 0
    <A_1> = 0
    <A_2> = 0
    <Phi> = 0
    <c0> = 0
    <c0i> = 0
    <c1> = 0
    <c1i> = 0
    <Mu_ssd> = 0
    <Sigma_ssd> = 0
    <innerangle> = 0
    <outerangle> = 0
  <EndBdry>
  <BeginBdry>
    <BdryName> = "rPA2"
    <BdryType> = 4
    <A_0> = 0
    <A_1> = 0
    <A_2> = 0
    <Phi> = 0
    <c0> = 0
    <c0i> = 0
    <c1> = 0
    <c1i> = 0
    <Mu_ssd> = 0
    <Sigma_ssd> = 0
    <innerangle> = 0
    <outerangle> = 0
  <EndBdry>
  <BeginBdry>
    <BdryName> = "rPA3"
    <BdryType> = 4
    <A_0> = 0
    <A_1> = 0
    <A_2> = 0
    <Phi> = 0
    <c0> = 0
    <c0i> = 0
    <c1> = 0
    <c1i> = 0
    <Mu_ssd> = 0
    <Sigma_ssd> = 0
    <innerangle> = 0
    <outerangle> = 0
  <EndBdry>
  <BeginBdry>
    <BdryName> = "rPA4"
    <BdryType> = 4
    <A_0> = 0
    <A_1> = 0
    <A_2> = 0
    <Phi> = 0
    <c0> = 0
    <c0i> = 0
    <c1> = 0
    <c1i> = 0
    <Mu_ssd> = 0
    <Sigma_ssd> = 0
    <innerangle> = 0
    <outerangle> = 0
  <EndBdry>
  <BeginBdry>
    <BdryName> = "rPA5"
    <BdryType> = 4
    <A_0> = 0
    <A_1> = 0
    <A_2> = 0
    <Phi> = 0
    <c0> = 0
    <c0i> = 0
    <c1> = 0
    <c1i> = 0
    <Mu_ssd> = 0
    <Sigma_ssd> = 0
    <innerangle> = 0
    <outerangle> = 0
  <EndBdry>
[BlockProps]  = 6
  <BeginBlock>
    <BlockName> = "Air"
    <Mu_x> = 1
    <Mu_y> = 1
    <H_c> = 0
    <H_cAngle> = 0
    <J_re> = 0
    <J_im> = 0
    <Sigma> = 0
    <d_lam> = 0
    <Phi_h> = 0
    <Phi_hx> = 0
    <Phi_hy> = 0
    <LamType> = 0
    <LamFill> = 1
    <NStrands> = 0
    <WireD> = 0
    <BHPoints> = 0
  <EndBlock>
  <BeginBlock>
    <BlockName> = "Cu"
    <Mu_x> = 1
    <Mu_y> = 1
    <H_c> = 0
    <H_cAngle> = 0
    <J_re> = 0
    <J_im> = 0
    <Sigma> = 56
    <d_lam> = 0
    <Phi_h> = 0
    <Phi_hx> = 0
    <Phi_hy> = 0
    <LamType> = 0
    <LamFill> = 1
    <NStrands> = 0
    <WireD> = 0
    <BHPoints> = 0
  <EndBlock>
  <BeginBlock>
    <BlockName> = "Al"
    <Mu_x> = 1
    <Mu_y> = 1
    <H_c> = 0
    <H_cAngle> = 0
    <J_re> = 0
    <J_im> = 0
    <Sigma> = 35
    <d_lam> = 0
    <Phi_h> = 0
    <Phi_hx> = 0
    <Phi_hy> = 0
    <LamType> = 0
    <LamFill> = 1
    <NStrands> = 0
    <WireD> = 0
    <BHPoints> = 0
  <EndBlock>
  <BeginBlock>
    <BlockName> = "Cu_NC"
    <Mu_x> = 1
    <Mu_y> = 1
    <H_c> = 0
    <H_cAngle> = 0
    <J_re> = 0
    <J_im> = 0
    <Sigma> = 0
    <d_lam> = 0
    <Phi_h> = 0
    <Phi_hx> = 0
    <Phi_hy> = 0
    <LamType> = 0
    <LamFill> = 1
    <NStrands> = 0
    <WireD> = 0
    <BHPoints> = 0
  <EndBlock>
  <BeginBlock>
    <BlockName> = "cogent_M400_50A"
    <Mu_x> = 4700
    <Mu_y> = 4700
    <H_c> = 0
    <H_cAngle> = 0
    <J_re> = 0
    <J_im> = 0
    <Sigma> = 0
    <d_lam> = 0.5
    <Phi_h> = 0
    <Phi_hx> = 0
    <Phi_hy> = 0
    <LamType> = 0
    <LamFill> = 0.96999999999999997
    <NStrands> = 0
    <WireD> = 0
    <BHPoints> = 19
      0	0
      0.100041	32.600000000000001
      0.20005500000000001	43.5
      0.300064	50.799999999999997
      0.40007199999999998	57.200000000000003
      0.50007999999999997	63.399999999999999
      0.60008799999999995	69.900000000000006
      0.70009699999999997	77.299999999999997
      0.80010800000000004	86
      0.90012199999999998	97.200000000000003
      1.0001420000000001	113.2
      1.1001730000000001	137.80000000000001
      1.200226	180.19999999999999
      1.3003389999999999	269.5
      1.400649	516.79999999999995
      1.5016419999999999	1307
      1.603996	3180
      1.7079930000000001	6361
      4	1750704.3740109999
  <EndBlock>
  <BeginBlock>
    <BlockName> = "cibas_REN35SH"
    <Mu_x> = 1.02
    <Mu_y> = 1.02
    <H_c> = 654457.72093732504
    <H_cAngle> = 0
    <J_re> = 0
    <J_im> = 0
    <Sigma> = 0.66666666666666696
    <d_lam> = 0
    <Phi_h> = 0
    <Phi_hx> = 0
    <Phi_hy> = 0
    <LamType> = 0
    <LamFill> = 1
    <NStrands> = 0
    <WireD> = 0
    <BHPoints> = 0
  <EndBlock>
[CircuitProps]  = 12
  <BeginCircuit>
    <CircuitName> = "Islot1"
    <TotalAmps_re> = 0
    <TotalAmps_im> = 0
    <CircuitType> = 0
  <EndCircuit>
  <BeginCircuit>
    <CircuitName> = "Islot2"
    <TotalAmps_re> = 0
    <TotalAmps_im> = 0
    <CircuitType> = 0
  <EndCircuit>
  <BeginCircuit>
    <CircuitName> = "Islot3"
    <TotalAmps_re> = 0
    <TotalAmps_im> = 0
    <CircuitType> = 0
  <EndCircuit>
  <BeginCircuit>
    <CircuitName> = "Islot4"
    <TotalAmps_re> = 0
    <TotalAmps_im> = 0
    <CircuitType> = 0
  <EndCircuit>
  <BeginCircuit>
    <CircuitName> = "Islot5"
    <TotalAmps_re> = 0
    <TotalAmps_im> = 0
    <CircuitType> = 0
  <EndCircuit>
  <BeginCircuit>
    <CircuitName> = "Islot6"
    <TotalAmps_re> = 0
    <TotalAmps_im> = 0
    <CircuitType> = 0
  <EndCircuit>
  <BeginCircuit>
    <CircuitName> = "Islot7"
    <TotalAmps_re> = 0
    <TotalAmps_im> = 0
    <CircuitType> = 0
  <EndCircuit>
  <BeginCircuit>
    <CircuitName> = "Islot8"
    <TotalAmps_re> = 0
    <TotalAmps_im> = 0
    <CircuitType> = 0
  <EndCircuit>
  <BeginCircuit>
    <CircuitName> = "Islot9"
    <TotalAmps_re> = 0
    <TotalAmps_im> = 0
    <CircuitType> = 0
  <EndCircuit>
  <BeginCircuit>
    <CircuitName> = "Islot10"
    <TotalAmps_re> = 0
    <TotalAmps_im> = 0
    <CircuitType> = 0
  <EndCircuit>
  <BeginCircuit>
    <CircuitName> = "Islot11"
    <TotalAmps_re> = 0
    <TotalAmps_im> = 0
    <CircuitType> = 0
  <EndCircuit>
  <BeginCircuit>
    <CircuitName> = "Islot12"
    <TotalAmps_re> = 0
    <TotalAmps_im> = 0
    <CircuitType> = 0
  <EndCircuit>
[NumPoints] = 317
0.032717680425335745	0.0043073643432617013	0	1000
0.032843077695820885	0.0032143813504735483	0	1000
0.03323987350227732	0.003266620509425739	0	1000
0.033114258369885269	0.0043595748201497239	0	1000
0.032999999999999995	0	0	1000
0.034044559870342203	1.7347234759768071e-018	0	1000
0.03397012741756078	0.002250000000000002	0	1000
0.033502524509484599	0.0025729476903325488	0	1000
0.043392539681378406	0.0022500000000000037	0	1000
0.044837297059782011	0.0038231913858532331	0	1000
0.044615018761821452	0.0058736786499023232	0	1000
0.043450834284280426	0	0	1000
0.054999999999999986	3.4694469519536142e-018	0	1000
0.054529467375559582	0.0071789405721028356	0	1000
0.032555920072936777	0.0053955600454959271	0	1000
0.032952715879393218	0.0054477992044481248	0	1000
0.031875552267539249	0.008541028488383182	0	1000
0.032884519623407951	0.0088113804765775645	0	1000
0.033394966246432997	0.0066187828310736319	0	1000
0.033026881533904276	0.0061858147782855831	0	1000
0.042496317597997289	0.0090574825757571958	0	1000
0.044299017954769079	0.0079118271115493181	0	1000
0.041970283008992942	0.011245903438365337	0	1000
0.053125920445898762	0.014235047480638634	0	1000
0.03048802457287246	0.01262855326804796	0	1000
0.030892033849486942	0.01160526796942459	0	1000
0.031261788677469461	0.011758425433927879	0	1000
0.030857576385876981	0.012781626640994002	0	1000
0.03223028054347167	0.010965449049374448	0	1000
0.031695025805283071	0.011156368025851616	0	1000
0.041331631895035942	0.013404148794058003	0	1000
0.04231998846730764	0.01529766570843237	0	1000
0.041574578963007883	0.017220754456429031	0	1000
0.050813374288120772	0.021047588780079934	0	1000
0.03005013029828375	0.01363780294094942	0	1000
0.030419885126266252	0.013790960405452706	0	1000
0.028578838324886481	0.016500000000000001	0	1000
0.029483453708376607	0.017022279935171102	0	1000
0.0305439933134019	0.015036506550265403	0	1000
0.030300511161290726	0.014523024192305813	0	1000
0.038704041698798014	0.019747712682174214	0	1000
0.04074183398372716	0.019107667666212271	0	1000
0.037629526305814676	0.021725417142140206	0	1000
0.047631397208144119	0.027499999999999997	0	1000
0.026180660229610752	0.020089127157287771	0	1000
0.026835748947810205	0.019205274754871465	0	1000
0.02715326461684052	0.019448913096824613	0	1000
0.026498001565727257	0.020332631728891267	0	1000
0.028293993313401912	0.018933620867295376	0	1000
0.027727563470958186	0.018979500317178776	0	1000
0.036454041698798012	0.023644826999204178	0	1000
0.036918642597873932	0.025729629393569733	0	1000
0.03570090031310557	0.027394264305392421	0	1000
0.043634433716017933	0.033481878595479631	0	1000
0.025496473803991018	0.020950652103512185	0	1000
0.02581398947302134	0.021194290445465332	0	1000
0.023334523779156076	0.023334523779156065	0	1000
0.024073139146830382	0.024073139146830378	0	1000
0.025611497712398023	0.02242951719705855	0	1000
0.025509211026997484	0.02187051350805266	0	1000
0.032274149319278751	0.029092168803939281	0	1000
0.034408161355758332	0.029001352246336685	0	1000
0.030724379570627611	0.030724379570627607	0	1000
0.038890872965260115	0.038890872965260108	0	1000
0.020089127157287785	0.026180660229610762	0	1000
0.020950652103512192	0.025496473803991011	0	1000
0.021194290445465343	0.025813989473021326	0	1000
0.020332631728891274	0.026498001565727257	0	1000
0.02242951719705857	0.025611497712398026	0	1000
0.021870513508052664	0.025509211026997481	0	1000
0.029092168803939288	0.032274149319278737	0	1000
0.029001352246336706	0.034408161355758318	0	1000
0.027394264305392442	0.035700900313105577	0	1000
0.033481878595479644	0.043634433716017947	0	1000
0.019205274754871472	0.026835748947810198	0	1000
0.019448913096824623	0.027153264616840513	0	1000
0.016500000000000001	0.028578838324886467	0	1000
0.017022279935171112	0.029483453708376593	0	1000
0.01893362086729539	0.028293993313401905	0	1000
0.01897950031717878	0.027727563470958172	0	1000
0.023644826999204192	0.036454041698798012	0	1000
0.025729629393569743	0.036918642597873925	0	1000
0.021725417142140224	0.037629526305814683	0	1000
0.027500000000000017	0.047631397208144126	0	1000
0.012628553268047966	0.030488024572872457	0	1000
0.013637802940949427	0.03005013029828375	0	1000
0.013790960405452716	0.030419885126266265	0	1000
0.012781626640994002	0.030857576385876977	0	1000
0.015036506550265408	0.030543993313401914	0	1000
0.014523024192305813	0.030300511161290719	0	1000
0.01974771268217422	0.038704041698798	0	1000
0.019107667666212282	0.040741833983727153	0	1000
0.017220754456429049	0.041574578963007883	0	1000
0.021047588780079944	0.050813374288120758	0	1000
0.011605267969424593	0.030892033849486945	0	1000
0.011758425433927879	0.031261788677469454	0	1000
0.0085410284883831906	0.031875552267539256	0	1000
0.0088113804765775697	0.032884519623407937	0	1000
0.010965449049374455	0.032230280543471657	0	1000
0.011156368025851619	0.031695025805283064	0	1000
0.013404148794058011	0.041331631895035942	0	1000
0.015297665708432375	0.042319988467307626	0	1000
0.011245903438365339	0.041970283008992942	0	1000
0.014235047480638648	0.053125920445898749	0	1000
0.0043073643432617083	0.032717680425335738	0	1000
0.0053955600454959332	0.03255592007293677	0	1000
0.0054477992044481369	0.032952715879393218	0	1000
0.0043595748201497326	0.033114258369885262	0	1000
0.0066187828310736449	0.033394966246432997	0	1000
0.00618581477828559	0.033026881533904276	0	1000
0.0090574825757572044	0.042496317597997289	0	1000
0.0079118271115493216	0.044299017954769065	0	1000
0.0058736786499023284	0.044615018761821452	0	1000
0.0071789405721028581	0.054529467375559595	0	1000
0.0032143813504735518	0.032843077695820885	0	1000
0.0032666205094257529	0.033239873502277341	0	1000
1.0408340855860843e-017	0.032999999999999995	0	1000
1.214306433183765e-017	0.034044559870342203	0	1000
0.0022500000000000055	0.033970127417560773	0	1000
0.002572947690332554	0.033502524509484599	0	1000
0.0022500000000000089	0.043392539681378392	0	1000
0.0038231913858532401	0.044837297059782004	0	1000
6.9388939039072284e-018	0.043450834284280412	0	1000
1.0408340855860843e-017	0.054999999999999986	0	1000
-0.0043073643432616892	0.032717680425335745	0	1000
-0.0032143813504735344	0.032843077695820892	0	1000
-0.0032666205094257304	0.033239873502277327	0	1000
-0.0043595748201497118	0.033114258369885269	0	1000
-0.0022499999999999916	0.033970127417560773	0	1000
-0.0025729476903325419	0.033502524509484599	0	1000
-0.0022499999999999899	0.043392539681378406	0	1000
-0.003823191385853221	0.044837297059782018	0	1000
-0.0058736786499023041	0.044615018761821452	0	1000
-0.0071789405721028147	0.054529467375559589	0	1000
-0.005395560045495915	0.032555920072936777	0	1000
-0.0054477992044481161	0.032952715879393218	0	1000
-0.0085410284883831716	0.031875552267539256	0	1000
-0.0088113804765775558	0.032884519623407951	0	1000
-0.0066187828310736215	0.033394966246432997	0	1000
-0.0061858147782855727	0.033026881533904276	0	1000
-0.0090574825757571767	0.042496317597997289	0	1000
-0.0079118271115493008	0.044299017954769072	0	1000
-0.01124590343836532	0.041970283008992942	0	1000
-0.01423504748063863	0.053125920445898769	0	1000
-0.012628553268047949	0.030488024572872467	0	1000
-0.011605267969424581	0.030892033849486942	0	1000
-0.011758425433927867	0.031261788677469461	0	1000
-0.012781626640993988	0.030857576385876988	0	1000
-0.010965449049374439	0.032230280543471664	0	1000
-0.011156368025851604	0.031695025805283071	0	1000
-0.013404148794057984	0.041331631895035956	0	1000
-0.015297665708432355	0.042319988467307647	0	1000
-0.017220754456429021	0.041574578963007904	0	1000
-0.021047588780079916	0.050813374288120779	0	1000
-0.013637802940949411	0.030050130298283757	0	1000
-0.013790960405452695	0.030419885126266269	0	1000
-0.016499999999999987	0.028578838324886488	0	1000
-0.017022279935171095	0.029483453708376607	0	1000
-0.015036506550265392	0.030543993313401914	0	1000
-0.014523024192305806	0.030300511161290733	0	1000
-0.0197477126821742	0.038704041698798021	0	1000
-0.019107667666212261	0.040741833983727174	0	1000
-0.021725417142140192	0.037629526305814689	0	1000
-0.027499999999999976	0.047631397208144133	0	1000
-0.020089127157287771	0.026180660229610759	0	1000
-0.019205274754871465	0.026835748947810208	0	1000
-0.019448913096824613	0.02715326461684052	0	1000
-0.020332631728891267	0.026498001565727257	0	1000
-0.01893362086729538	0.028293993313401905	0	1000
-0.018979500317178773	0.027727563470958179	0	1000
-0.023644826999204178	0.036454041698798012	0	1000
-0.025729629393569733	0.036918642597873932	0	1000
-0.027394264305392407	0.035700900313105577	0	1000
-0.033481878595479624	0.04363443371601794	0	1000
-0.020950652103512178	0.025496473803991018	0	1000
-0.021194290445465329	0.025813989473021336	0	1000
-0.023334523779156062	0.023334523779156079	0	1000
-0.024073139146830375	0.024073139146830388	0	1000
-0.02242951719705855	0.025611497712398023	0	1000
-0.02187051350805265	0.025509211026997481	0	1000
-0.029092168803939278	0.032274149319278758	0	1000
-0.029001352246336685	0.034408161355758332	0	1000
-0.030724379570627604	0.030724379570627621	0	1000
-0.038890872965260101	0.038890872965260122	0	1000
-0.026180660229610749	0.020089127157287799	0	1000
-0.025496473803991004	0.020950652103512199	0	1000
-0.025813989473021322	0.02119429044546535	0	1000
-0.026498001565727243	0.020332631728891284	0	1000
-0.025611497712398002	0.022429517197058574	0	1000
-0.025509211026997471	0.021870513508052677	0	1000
-0.03227414931927873	0.029092168803939306	0	1000
-0.034408161355758304	0.029001352246336723	0	1000
-0.035700900313105563	0.027394264305392442	0	1000
-0.043634433716017919	0.033481878595479658	0	1000
-0.026835748947810191	0.019205274754871479	0	1000
-0.027153264616840499	0.019448913096824637	0	1000
-0.028578838324886464	0.016500000000000015	0	1000
-0.029483453708376593	0.017022279935171129	0	1000
-0.028293993313401891	0.01893362086729539	0	1000
-0.027727563470958162	0.018979500317178793	0	1000
-0.036454041698797998	0.02364482699920421	0	1000
-0.036918642597873905	0.025729629393569754	0	1000
-0.037629526305814662	0.02172541714214023	0	1000
-0.047631397208144098	0.027500000000000035	0	1000
-0.03048802457287246	0.012628553268047975	0	1000
-0.030050130298283743	0.01363780294094943	0	1000
-0.030419885126266259	0.013790960405452723	0	1000
-0.030857576385876974	0.012781626640994009	0	1000
-0.0305439933134019	0.015036506550265415	0	1000
-0.030300511161290719	0.014523024192305825	0	1000
-0.038704041698798007	0.019747712682174227	0	1000
-0.040741833983727146	0.019107667666212292	0	1000
-0.04157457896300789	0.017220754456429059	0	1000
-0.050813374288120765	0.021047588780079944	0	1000
-0.030892033849486945	0.011605267969424606	0	1000
-0.031261788677469447	0.011758425433927886	0	1000
-0.031875552267539256	0.0085410284883831976	0	1000
-0.032884519623407951	0.0088113804765775801	0	1000
-0.03223028054347165	0.010965449049374458	0	1000
-0.031695025805283071	0.01115636802585163	0	1000
-0.041331631895035942	0.013404148794058018	0	1000
-0.042319988467307633	0.015297665708432389	0	1000
-0.041970283008992942	0.011245903438365347	0	1000
-0.053125920445898756	0.014235047480638672	0	1000
-0.032717680425335738	0.0043073643432617083	0	1000
-0.032555920072936777	0.0053955600454959392	0	1000
-0.032952715879393218	0.0054477992044481369	0	1000
-0.033114258369885262	0.0043595748201497326	0	1000
-0.033394966246432997	0.0066187828310736449	0	1000
-0.033026881533904276	0.0061858147782855935	0	1000
-0.042496317597997282	0.0090574825757572097	0	1000
-0.044299017954769079	0.0079118271115493251	0	1000
-0.044615018761821452	0.0058736786499023284	0	1000
-0.054529467375559595	0.0071789405721028581	0	1000
-0.032843077695820892	0.0032143813504735552	0	1000
-0.033239873502277341	0.0032666205094257529	0	1000
-0.032999999999999995	1.0408340855860843e-017	0	1000
-0.034044559870342203	1.214306433183765e-017	0	1000
-0.033970127417560773	0.0022500000000000124	0	1000
-0.033502524509484599	0.0025729476903325575	0	1000
-0.043392539681378413	0.0022500000000000141	0	1000
-0.044837297059782011	0.0038231913858532383	0	1000
-0.043450834284280412	6.9388939039072284e-018	0	1000
-0.055	2.0816681711721685e-017	0	1000
0.023122391744800103	0.023122391744800106	0	10
0.030884429011298196	0.0036554130609387468	0	10
0.0308844290112982	0	0	10
0.030084429011298208	-1.7347234759768071e-018	0	10
0.030084429011298208	0.00039999999999999931	0	10
0.030084429011298205	0.0036554130609387503	0	10
0.016869921036118479	0.016869921036118472	0	10
0.027963108667738563	0	0	10
0.027963108667738563	0.00039999999999999931	0	10
0.027963108667738563	0.00153409271737911	0	10
0.014748600692558837	0.014748600692558837	0	10
0.0099999999999999985	0	0	10
0.0070710678118654745	0.0070710678118654745	0	10
0.0036554130609387538	0.030884429011298196	0	10
6.9388939039072284e-018	0.030884429011298203	0	10
6.9388939039072284e-018	0.030084429011298208	0	10
0.00040000000000000799	0.030084429011298205	0	10
0.0036554130609387555	0.030084429011298208	0	10
5.2041704279304213e-018	0.027963108667738566	0	10
0.00040000000000000625	0.027963108667738566	0	10
0.0015340927173791083	0.027963108667738563	0	10
1.7347234759768071e-018	0.0099999999999999985	0	10
0	0	0	10
-0.023122391744800106	0.023122391744800103	0	10
-0.0036554130609387468	0.030884429011298196	0	10
-0.00039999999999999931	0.030084429011298208	0	10
-0.0036554130609387503	0.030084429011298205	0	10
-0.016869921036118472	0.016869921036118479	0	10
-0.00039999999999999931	0.027963108667738563	0	10
-0.0015340927173791083	0.027963108667738559	0	10
-0.014748600692558836	0.014748600692558841	0	10
-0.0070710678118654745	0.0070710678118654745	0	10
-0.03088442901129819	0.0036554130609387538	0	10
-0.030884429011298203	6.9388939039072284e-018	0	10
-0.030084429011298208	6.9388939039072284e-018	0	10
-0.030084429011298205	0.00040000000000000799	0	10
-0.030084429011298208	0.0036554130609387555	0	10
-0.027963108667738566	5.2041704279304213e-018	0	10
-0.027963108667738566	0.00040000000000000972	0	10
-0.027963108667738566	0.0015340927173791135	0	10
-0.0099999999999999985	3.903127820947816e-018	0	10
0.032699999999999993	0	0	10
-0.032699999999999993	6.9388939039072284e-018	0	10
0.015031443405033453	0.014465757980084218	0	10
0.017152763748593099	0.01658707832364386	0	10
0.014465757980084223	0.015031443405033457	0	10
0.01658707832364386	0.017152763748593092	0	10
-0.014465757980084218	0.015031443405033453	0	10
-0.016587078323643856	0.017152763748593106	0	10
-0.015031443405033457	0.014465757980084223	0	10
-0.017152763748593095	0.016587078323643867	0	10
0.051999999999999991	0	0	0
-0.051999999999999991	0	0	0
0.0018792572749636791	0.027617944110153999	0	10
0.0040005776185233141	0.029739264453713634	0	10
0.027617944110153999	0.0018792572749636773	0	10
0.029739264453713644	0.0040005776185233176	0	10
0.014890022048796147	0.01432433662384691	0	10
0.014324336623846913	0.01489002204879615	0	10
0.0017378359187263694	0.027476522753916689	0	10
0.027476522753916689	0.0017378359187263676	0	10
-0.027617944110153999	0.0018792572749636791	0	10
-0.029739264453713634	0.0040005776185233141	0	10
-0.0018792572749636773	0.027617944110153999	0	10
-0.0040005776185233176	0.029739264453713644	0	10
-0.0017378359187263676	0.027476522753916689	0	10
-0.014324336623846908	0.01489002204879615	0	10
-0.01489002204879615	0.014324336623846913	0	10
-0.027476522753916689	0.0017378359187263694	0	10
0.05492462441150156	0.0028784775933619125	0	0
-0.054924624411501567	0.002878477593361909	0	0
0.018655817327798131	0.045039127209925228	0	0
0.019612525908710855	0.047348826041203447	0	0
[NumSegments] = 222
1	2	-1	0	0	1000
3	0	-1	0	1	1000
4	5	-1	2	0	1000
7	2	-1	0	0	1000
6	8	-1	0	0	1000
5	11	-1	3	0	1000
11	295	-1	4	0	1000
13	10	-1	0	1	1000
14	15	-1	0	0	1000
16	17	-1	0	1	1000
19	15	-1	0	0	1000
18	20	-1	0	0	1000
17	22	-1	0	1	1000
22	23	-1	0	1	1000
25	26	-1	0	0	1000
27	24	-1	0	1	1000
29	26	-1	0	0	1000
28	30	-1	0	0	1000
33	32	-1	0	1	1000
34	35	-1	0	0	1000
36	37	-1	0	1	1000
39	35	-1	0	0	1000
38	40	-1	0	0	1000
37	42	-1	0	1	1000
42	43	-1	0	1	1000
45	46	-1	0	0	1000
47	44	-1	0	1	1000
49	46	-1	0	0	1000
48	50	-1	0	0	1000
53	52	-1	0	1	1000
54	55	-1	0	0	1000
56	57	-1	0	1	1000
59	55	-1	0	0	1000
58	60	-1	0	0	1000
57	62	-1	0	1	1000
62	63	-1	0	1	1000
65	66	-1	0	0	1000
67	64	-1	0	1	1000
69	66	-1	0	0	1000
68	70	-1	0	0	1000
73	72	-1	0	1	1000
74	75	-1	0	0	1000
76	77	-1	0	1	1000
79	75	-1	0	0	1000
78	80	-1	0	0	1000
77	82	-1	0	1	1000
82	83	-1	0	1	1000
85	86	-1	0	0	1000
87	84	-1	0	1	1000
89	86	-1	0	0	1000
88	90	-1	0	0	1000
93	316	-1	0	1	1000
94	95	-1	0	0	1000
96	97	-1	0	1	1000
99	95	-1	0	0	1000
98	100	-1	0	0	1000
97	102	-1	0	1	1000
102	103	-1	0	1	1000
105	106	-1	0	0	1000
107	104	-1	0	1	1000
109	106	-1	0	0	1000
108	110	-1	0	0	1000
113	112	-1	0	1	1000
114	115	-1	0	0	1000
116	117	-1	0	1	1000
119	115	-1	0	0	1000
118	120	-1	0	0	1000
117	122	-1	0	1	1000
122	123	-1	0	1	1000
125	126	-1	0	0	1000
127	124	-1	0	1	1000
129	126	-1	0	0	1000
128	130	-1	0	0	1000
133	132	-1	0	1	1000
134	135	-1	0	0	1000
136	137	-1	0	1	1000
139	135	-1	0	0	1000
138	140	-1	0	0	1000
137	142	-1	0	1	1000
142	143	-1	0	1	1000
145	146	-1	0	0	1000
147	144	-1	0	1	1000
149	146	-1	0	0	1000
148	150	-1	0	0	1000
153	152	-1	0	1	1000
154	155	-1	0	0	1000
156	157	-1	0	1	1000
159	155	-1	0	0	1000
158	160	-1	0	0	1000
157	162	-1	0	1	1000
162	163	-1	0	1	1000
165	166	-1	0	0	1000
167	164	-1	0	1	1000
169	166	-1	0	0	1000
168	170	-1	0	0	1000
173	172	-1	0	1	1000
174	175	-1	0	0	1000
176	177	-1	0	1	1000
179	175	-1	0	0	1000
178	180	-1	0	0	1000
177	182	-1	0	1	1000
182	183	-1	0	1	1000
185	186	-1	0	0	1000
187	184	-1	0	1	1000
189	186	-1	0	0	1000
188	190	-1	0	0	1000
193	192	-1	0	1	1000
194	195	-1	0	0	1000
196	197	-1	0	1	1000
199	195	-1	0	0	1000
198	200	-1	0	0	1000
197	202	-1	0	1	1000
202	203	-1	0	1	1000
205	206	-1	0	0	1000
207	204	-1	0	1	1000
209	206	-1	0	0	1000
208	210	-1	0	0	1000
213	212	-1	0	1	1000
214	215	-1	0	0	1000
216	217	-1	0	1	1000
219	215	-1	0	0	1000
218	220	-1	0	0	1000
217	222	-1	0	1	1000
222	223	-1	0	1	1000
225	226	-1	0	0	1000
227	224	-1	0	1	1000
229	226	-1	0	0	1000
228	230	-1	0	0	1000
233	232	-1	0	1	1000
234	235	-1	0	0	1000
236	237	-1	2	0	1000
239	235	-1	0	0	1000
238	240	-1	0	0	1000
237	242	-1	3	0	1000
242	296	-1	4	0	1000
245	246	-1	0	0	10
247	248	-1	0	0	10
248	249	-1	0	0	10
249	300	-1	0	0	10
300	288	-1	0	0	10
251	252	-1	0	0	10
252	253	-1	0	0	10
253	299	-1	0	0	10
299	287	-1	0	0	10
252	248	-1	0	0	10
257	258	-1	0	0	10
259	260	-1	0	0	10
260	261	-1	0	0	10
261	298	-1	0	0	10
298	290	-1	0	0	10
262	263	-1	0	0	10
263	264	-1	0	0	10
264	297	-1	0	0	10
297	289	-1	0	0	10
263	260	-1	0	0	10
266	255	-1	7	0	10
251	255	-1	8	0	10
247	251	-1	9	0	10
246	247	-1	10	0	10
268	258	-1	0	0	10
259	269	-1	0	0	10
269	270	-1	0	0	10
270	308	-1	0	0	10
308	292	-1	0	0	10
262	272	-1	0	0	10
272	273	-1	0	0	10
273	307	-1	0	0	10
307	291	-1	0	0	10
272	269	-1	0	0	10
276	277	-1	0	0	10
278	279	-1	0	0	10
279	280	-1	0	0	10
280	306	-1	0	0	10
306	294	-1	0	0	10
281	282	-1	0	0	10
282	283	-1	0	0	10
283	305	-1	0	0	10
305	293	-1	0	0	10
282	279	-1	0	0	10
266	265	-1	0	0	10
262	265	-1	0	0	10
259	262	-1	0	0	10
258	259	-1	0	0	10
266	284	-1	7	0	10
281	284	-1	8	0	10
278	281	-1	9	0	10
277	278	-1	10	0	10
246	285	-1	11	0	10
277	286	-1	11	0	10
287	254	-1	0	0	10
288	250	-1	0	0	10
287	288	-1	0	0	10
289	254	-1	0	0	10
290	250	-1	0	0	10
289	290	-1	0	0	10
291	274	-1	0	0	10
292	271	-1	0	0	10
291	292	-1	0	0	10
293	274	-1	0	0	10
294	271	-1	0	0	10
293	294	-1	0	0	10
295	12	-1	5	0	1000
296	243	-1	5	0	1000
297	298	-1	0	0	10
299	300	-1	0	0	10
299	304	-1	0	0	10
304	301	-1	0	0	10
301	287	-1	0	0	10
289	302	-1	0	0	10
302	303	-1	0	0	10
303	297	-1	0	0	10
305	306	-1	0	0	10
307	308	-1	0	0	10
307	309	-1	0	0	10
309	310	-1	0	0	10
310	291	-1	0	0	10
293	311	-1	0	0	10
311	312	-1	0	0	10
312	305	-1	0	0	10
295	313	-1	0	0	0
296	314	-1	0	0	0
315	92	-1	0	1	1000
[NumArcSegments] = 228
1	0	1.9102131717099307	0.5	0	1	1000	0.47999999999999998
2	3	1.887328039280467	5	0	0	1000	5
4	1	5.5897868282900687	0.5	0	0	1000	0.46999999999999997
5	6	3.7894317625743885	10	0	1	1000	10
7	6	69.261421448445034	10	0	0	1000	10
8	9	94.873700362335939	10	0	0	1000	10
9	10	2.6262862896765449	10	0	0	1000	10
11	8	2.9682557067519135	10	0	1	1000	10
12	313	2.9999999999999996	5	1	0	1000	1
0	14	1.9102131717099307	0.5	0	1	1000	0.47999999999999998
3	15	1.887328039280467	5	0	0	1000	5
14	16	5.5897868282900687	0.5	0	0	1000	0.46999999999999997
18	17	3.7894317625743885	10	0	1	1000	10
18	19	69.261421448445034	10	0	0	1000	10
21	20	94.873700362335939	10	0	0	1000	10
10	21	2.6262862896765449	10	0	0	1000	10
20	22	2.9682557067519135	10	0	1	1000	10
13	23	7.4999999999999991	5	1	0	1000	2.5
25	24	1.9102131717099307	0.5	0	1	1000	0.47999999999999998
26	27	1.887328039280467	5	0	0	1000	5
16	25	5.5897868282900687	0.5	0	0	1000	0.46999999999999997
17	28	3.7894317625743885	10	0	1	1000	10
29	28	69.261421448445034	10	0	0	1000	10
30	31	94.873700362335939	10	0	0	1000	10
31	32	2.6262862896765449	10	0	0	1000	10
22	30	2.9682557067519135	10	0	1	1000	10
23	33	7.4999999999999991	5	1	0	1000	3.7000000000000002
24	34	1.9102131717099307	0.5	0	1	1000	0.47999999999999998
27	35	1.887328039280467	5	0	0	1000	5
34	36	5.5897868282900687	0.5	0	0	1000	0.46999999999999997
38	37	3.7894317625743885	10	0	1	1000	10
38	39	69.261421448445034	10	0	0	1000	10
41	40	94.873700362335939	10	0	0	1000	10
32	41	2.6262862896765449	10	0	0	1000	10
40	42	2.9682557067519135	10	0	1	1000	10
33	43	7.4999999999999991	5	1	0	1000	3.7000000000000002
45	44	1.9102131717099307	0.5	0	1	1000	0.47999999999999998
46	47	1.887328039280467	5	0	0	1000	5
36	45	5.5897868282900687	0.5	0	0	1000	0.46999999999999997
37	48	3.7894317625743885	10	0	1	1000	10
49	48	69.261421448445034	10	0	0	1000	10
50	51	94.873700362335939	10	0	0	1000	10
51	52	2.6262862896765449	10	0	0	1000	10
42	50	2.9682557067519135	10	0	1	1000	10
43	53	7.4999999999999991	5	1	0	1000	1.8999999999999999
44	54	1.9102131717099307	0.5	0	1	1000	0.47999999999999998
47	55	1.887328039280467	5	0	0	1000	5
54	56	5.5897868282900687	0.5	0	0	1000	0.46999999999999997
58	57	3.7894317625743885	10	0	1	1000	10
58	59	69.261421448445034	10	0	0	1000	10
61	60	94.873700362335939	10	0	0	1000	10
52	61	2.6262862896765449	10	0	0	1000	10
60	62	2.9682557067519135	10	0	1	1000	10
53	63	7.4999999999999991	5	1	0	1000	2.5
65	64	1.9102131717099307	0.5	0	1	1000	0.47999999999999998
66	67	1.887328039280467	5	0	0	1000	5
56	65	5.5897868282900687	0.5	0	0	1000	0.46999999999999997
57	68	3.7894317625743885	10	0	1	1000	10
69	68	69.261421448445034	10	0	0	1000	10
70	71	94.873700362335939	10	0	0	1000	10
71	72	2.6262862896765449	10	0	0	1000	10
62	70	2.9682557067519135	10	0	1	1000	10
63	73	7.4999999999999991	5	1	0	1000	2.5
64	74	1.9102131717099307	0.5	0	1	1000	0.47999999999999998
67	75	1.887328039280467	5	0	0	1000	5
74	76	5.5897868282900687	0.5	0	0	1000	0.46999999999999997