[Format]      =  4.0
[Frequency]   =  0
[Precision]   =  1e-008
[MinAngle]    =  10
[DoSmartMesh] =  0
[Depth]       =  0.10000000000000001
[LengthUnits] =  meters
[ProblemType] =  planar
[Coordinates] =  cartesian
[ACSolver]    =  0
[PrevType]    =  0
[PrevSoln]    =  ""
[Comment]     =  "Add comments here."
[PointProps]   = 0
[BdryProps]   = 5
  <BeginBdry>
    <BdryName> = "Azero"
    <BdryType> = 0
    <A_0> = 0
    <A_1> = 0
    <A_2> = 0
    <Phi> = 0
    <c0> = 0
    <c0i> = 0
    <c1> = 0
    <c1i> = 0
    <Mu_ssd> = 0
    <Sigma_ssd> = 0
    <innerangle> = 0
    <outerangle> = 0
  <EndBdry>
  <BeginBdry>
    <BdryName> = "Az=0"
    <BdryType> = 0
    <A_0> = 0
    <A_1> = 0
    <A_2> = 0
    <Phi> = 0
    <c0> = 0
    <c0i> = 0
    <c1> = 0
    <c1i> = 0
    <Mu_ssd> = 0
    <Sigma_ssd> = 0
    <innerangle> = 0
    <outerangle> = 0
  <EndBdry>
  <BeginBdry>
    <BdryName> = "stator_periodic_BC"
    <BdryType> = 4
    <A_0> = 0
    <A_1> = 0
    <A_2> = 0
    <Phi> = 0
    <c0> = 0
    <c0i> = 0
    <c1> = 0
    <c1i> = 0
    <Mu_ssd> = 0
    <Sigma_ssd> = 0
    <innerangle> = 0
    <outerangle> = 0
  <EndBdry>
  <BeginBdry>
    <BdryName> = "shaft_periodic"
    <BdryType> = 4
    <A_0> = 0
    <A_1> = 0
    <A_2> = 0
    <Phi> = 0
    <c0> = 0
    <c0i> = 0
    <c1> = 0
    <c1i> = 0
    <Mu_ssd> = 0
    <Sigma_ssd> = 0
    <innerangle> = 0
    <outerangle> = 0
  <EndBdry>
  <BeginBdry>
    <BdryName> = "rotor_periodic"
    <BdryType> = 4
    <A_0> = 0
    <A_1> = 0
    <A_2> = 0
    <Phi> = 0
    <c0> = 0
    <c0i> = 0
    <c1> = 0
    <c1i> = 0
    <Mu_ssd> = 0
    <Sigma_ssd> = 0
    <innerangle> = 0
    <outerangle> = 0
  <EndBdry>
[BlockProps]  = 5
  <BeginBlock>
    <BlockName> = "Air"
    <Mu_x> = 1
    <Mu_y> = 1
    <H_c> = 0
    <H_cAngle> = 0
    <J_re> = 0
    <J_im> = 0
    <Sigma> = 0
    <d_lam> = 0
    <Phi_h> = 0
    <Phi_hx> = 0
    <Phi_hy> = 0
    <LamType> = 0
    <LamFill> = 1
    <NStrands> = 0
    <WireD> = 0
    <BHPoints> = 0
  <EndBlock>
  <BeginBlock>
    <BlockName> = "Cu"
    <Mu_x> = 1
    <Mu_y> = 1
    <H_c> = 0
    <H_cAngle> = 0
    <J_re> = 0
    <J_im> = 0
    <Sigma> = 56
    <d_lam> = 0
    <Phi_h> = 0
    <Phi_hx> = 0
    <Phi_hy> = 0
    <LamType> = 0
    <LamFill> = 1
    <NStrands> = 0
    <WireD> = 0
    <BHPoints> = 0
  <EndBlock>
  <BeginBlock>
    <BlockName> = "Al"
    <Mu_x> = 1
    <Mu_y> = 1
    <H_c> = 0
    <H_cAngle> = 0
    <J_re> = 0
    <J_im> = 0
    <Sigma> = 35
    <d_lam> = 0
    <Phi_h> = 0
    <Phi_hx> = 0
    <Phi_hy> = 0
    <LamType> = 0
    <LamFill> = 1
    <NStrands> = 0
    <WireD> = 0
    <BHPoints> = 0
  <EndBlock>
  <BeginBlock>
    <BlockName> = "Cu_NC"
    <Mu_x> = 1
    <Mu_y> = 1
    <H_c> = 0
    <H_cAngle> = 0
    <J_re> = 0
    <J_im> = 0
    <Sigma> = 0
    <d_lam> = 0
    <Phi_h> = 0
    <Phi_hx> = 0
    <Phi_hy> = 0
    <LamType> = 0
    <LamFill> = 1
    <NStrands> = 0
    <WireD> = 0
    <BHPoints> = 0
  <EndBlock>
  <BeginBlock>
    <BlockName> = "isovac_530_50A"
    <Mu_x> = 2243
    <Mu_y> = 2243
    <H_c> = 0
    <H_cAngle> = 0
    <J_re> = 0
    <J_im> = 0
    <Sigma> = 0
    <d_lam> = 0
    <Phi_h> = 0
    <Phi_hx> = 0
    <Phi_hy> = 0
    <LamType> = 0
    <LamFill> = 1
    <NStrands> = 0
    <WireD> = 0
    <BHPoints> = 34
      0	0
      0.10007414158662473	59
      0.15008168140899333	65
      0.20008922123136197	71
      0.25009676105373058	77
      0.30010430087609918	83
      0.35011058406140633	88
      0.40011812388377499	94
      0.45012440706908219	99
      0.50012943361732787	103
      0.55013446016557366	107
      0.60013948671381934	111
      0.65014451326206513	115
      0.70014953981031081	119
      0.7501545663585566	123
      0.80015833626974098	126
      0.85016336281798666	130
      0.90016964600329386	135
      1.0001834690109697	146
      1.0501922654703997	153
      1.1002023185668912	161
      1.150213628300444	170
      1.2002249380339969	179
      1.2502387610416728	190
      1.3002601238717173	207
      1.3502953097094375	235
      1.4003518583772019	280
      1.4504549026162397	362
      1.5006924070208512	551
      1.5511850087489341	943
      1.6021098936261511	1679
      1.6535902120845223	2857
      1.7054789375878605	4360
      4	1830281.8455567965
  <EndBlock>
[CircuitProps]  = 12
  <BeginCircuit>
    <CircuitName> = "Islot1"
    <TotalAmps_re> = 0
    <TotalAmps_im> = 0
    <CircuitType> = 0
  <EndCircuit>
  <BeginCircuit>
    <CircuitName> = "Islot2"
    <TotalAmps_re> = 0
    <TotalAmps_im> = 0
    <CircuitType> = 0
  <EndCircuit>
  <BeginCircuit>
    <CircuitName> = "Islot3"
    <TotalAmps_re> = 0
    <TotalAmps_im> = 0
    <CircuitType> = 0
  <EndCircuit>
  <BeginCircuit>
    <CircuitName> = "Islot4"
    <TotalAmps_re> = 0
    <TotalAmps_im> = 0
    <CircuitType> = 0
  <EndCircuit>
  <BeginCircuit>
    <CircuitName> = "Islot5"
    <TotalAmps_re> = 0
    <TotalAmps_im> = 0
    <CircuitType> = 0
  <EndCircuit>
  <BeginCircuit>
    <CircuitName> = "Islot6"
    <TotalAmps_re> = 0
    <TotalAmps_im> = 0
    <CircuitType> = 0
  <EndCircuit>
  <BeginCircuit>
    <CircuitName> = "Islot7"
    <TotalAmps_re> = 0
    <TotalAmps_im> = 0
    <CircuitType> = 0
  <EndCircuit>
  <BeginCircuit>
    <CircuitName> = "Islot8"
    <TotalAmps_re> = 0
    <TotalAmps_im> = 0
    <CircuitType> = 0
  <EndCircuit>
  <BeginCircuit>
    <CircuitName> = "Islot9"
    <TotalAmps_re> = 0
    <TotalAmps_im> = 0
    <CircuitType> = 0
  <EndCircuit>
  <BeginCircuit>
    <CircuitName> = "Islot10"
    <TotalAmps_re> = 0
    <TotalAmps_im> = 0
    <CircuitType> = 0
  <EndCircuit>
  <BeginCircuit>
    <CircuitName> = "Islot11"
    <TotalAmps_re> = 0
    <TotalAmps_im> = 0
    <CircuitType> = 0
  <EndCircuit>
  <BeginCircuit>
    <CircuitName> = "Islot12"
    <TotalAmps_re> = 0
    <TotalAmps_im> = 0
    <CircuitType> = 0
  <EndCircuit>
[NumPoints] = 533
0.05187675475054513	0.0023089919889464137	0	1000
0.052495298433913956	0.0023514621168544995	0	1000
0.05232404791815555	0.0048455898723739474	0	1000
0.051705504234786724	0.004803119744465862	0	1000
0.052691000358684563	0.0019461792504987592	0	1000
0.076912911135739129	0.0020213653475670652	0	1000
0.076467394984857842	0.0085099542579373799	0	1000
0.052462519767250394	0.0052738176063294928	0	1000
0.051206513126191636	0.0086268268158337987	0	1000
0.05181524093658961	0.0087445147627446505	0	1000
0.051340692763561985	0.011199062385317118	0	1000
0.05073196495316401	0.011081374438406266	0	1000
0.052058970707860121	0.0083661640739427535	0	1000
0.076090411349366088	0.011398733172011321	0	1000
0.074855852291142444	0.017784352532749532	0	1000
0.051425833652726703	0.011640995043210475	0	1000
0.049481912915076649	0.015750219735546411	0	1000
0.050068008376558441	0.015952437712072859	0	1000
0.049252613309919542	0.018315725863209099	0	1000
0.04866651784843775	0.018113507886682652	0	1000
0.050362578161211619	0.01561217004230415	0	1000
0.073727703531935668	0.021997898743958456	0	1000
0.071606415488347896	0.028146102361651045	0	1000
0.049274686856165914	0.018765243608883899	0	1000
0.046823317943949026	0.022452305542484639	0	1000
0.047375753866992387	0.022733756339128091	0	1000
0.046240871622462348	0.024961320544948085	0	1000
0.045688435699418987	0.024679869748304634	0	1000
0.047714615802666421	0.022437570529758886	0	1000
0.069970005218457074	0.031998127866666504	0	1000
0.067017556479559107	0.037793239352449715	0	1000
0.046200468150088408	0.025409562672085391	0	1000
0.043474784543055832	0.028398454823953	0	1000
0.043985542999076165	0.028749917196908819	0	1000
0.042568356011351095	0.030809427100216582	0	1000
0.042057597555330763	0.030457964727260763	0	1000
0.044360318222489745	0.028500724546463952	0	1000
0.065169837928473612	0.040897115321486079	0	1000
0.061482960320811207	0.046255025753230365	0	1000
0.042469522625791872	0.031248500450602765	0	1000
0.03970468474127626	0.033467404097854515	0	1000
0.040168985975030144	0.033878286519399448	0	1000
0.038512202017187691	0.035750468913568326	0	1000
0.038047900783433806	0.035339586492023393	0	1000
0.040571247094748394	0.033676446392855025	0	1000
0.059721499447590601	0.048507982033618807	0	1000
0.05541129922150112	0.053378551271346053	0	1000
0.038360783804228873	0.0361742919543587	0	1000
0.0353395864920234	0.038047900783433806	0	1000
0.035750468913568326	0.038512202017187684	0	1000
0.033878286519399448	0.040168985975030137	0	1000
0.033467404097854522	0.03970468474127626	0	1000
0.036174291954358707	0.038360783804228867	0	1000
0.05337855127134606	0.055411299221501106	0	1000
0.048507982033618814	0.059721499447590587	0	1000
0.033676446392855032	0.040571247094748387	0	1000
0.030457964727260763	0.042057597555330756	0	1000
0.030809427100216582	0.042568356011351088	0	1000
0.028749917196908819	0.043985542999076158	0	1000
0.028398454823953	0.043474784543055825	0	1000
0.031248500450602765	0.042469522625791872	0	1000
0.046255025753230365	0.061482960320811193	0	1000
0.040897115321486079	0.065169837928473598	0	1000
0.028500724546463952	0.044360318222489745	0	1000
0.024679869748304644	0.045688435699418981	0	1000
0.024961320544948096	0.046240871622462341	0	1000
0.022733756339128101	0.04737575386699238	0	1000
0.02245230554248465	0.046823317943949019	0	1000
0.025409562672085401	0.046200468150088402	0	1000
0.037793239352449728	0.067017556479559093	0	1000
0.031998127866666518	0.06997000521845706	0	1000
0.022437570529758897	0.047714615802666414	0	1000
0.018113507886682669	0.04866651784843775	0	1000
0.018315725863209117	0.049252613309919542	0	1000
0.015952437712072876	0.050068008376558441	0	1000
0.015750219735546429	0.049481912915076649	0	1000
0.018765243608883916	0.049274686856165914	0	1000
0.028146102361651066	0.071606415488347896	0	1000
0.021997898743958477	0.073727703531935668	0	1000
0.015612170042304167	0.050362578161211619	0	1000
0.011081374438406278	0.050731964953164004	0	1000
0.011199062385317128	0.051340692763561978	0	1000
0.0087445147627446609	0.051815240936589603	0	1000
0.0086268268158338109	0.051206513126191629	0	1000
0.011640995043210485	0.051425833652726696	0	1000
0.017784352532749549	0.07485585229114243	0	1000
0.01139873317201134	0.076090411349366074	0	1000
0.0083661640739427674	0.052058970707860114	0	1000
0.0048031197444658672	0.051705504234786724	0	1000
0.0048455898723739534	0.05232404791815555	0	1000
0.0023514621168545051	0.052495298433913956	0	1000
0.0023089919889464198	0.05187675475054513	0	1000
0.005273817606329498	0.052462519767250394	0	1000
0.0085099542579373903	0.076467394984857842	0	1000
0.0020213653475670739	0.076912911135739129	0	1000
0.0019461792504987649	0.052691000358684563	0	1000
0.085000000000000006	0	0	1000
5.2047488963762512e-018	0.085000000000000006	0	1000
0.051928114999999997	0	0	1000
0	0.051928115000000004	0	1000
0.044152447686790511	0.018288542643837221	0	10
0.044808761814876585	0.016892957951280468	0	10
0.045603854477337412	0.015546209068292306	0	10
0.046507886049907778	0.014293156845117947	0	10
0.047524978002875397	0.013116680375250295	0	10
0.048632873419489665	0.01203227340652396	0	10
0.041077601065481771	0.017014899471074051	0	10
0.042152232655413735	0.014891727794501024	0	10
0.04353524936685621	0.012946795892887168	0	10
0.045172793451667116	0.011224140049160341	0	10
0.047022313286463932	0.0097227713942364159	0	10
0.049025721926859535	0.0084394722972736137	0	10
0.038314837394250921	0.015599927238745507	0	10
0.039383681983981018	0.013569094996826004	0	10
0.04072937777434113	0.011736012606384884	0	10
0.04233618925385365	0.010100523794419726	0	10
0.044148691791521012	0.008687525964355779	0	10
0.046101249283783591	0.0074966457657687832	0	10
0.048157803863980275	0.0064966021923406371	0	10
0.050293814982966568	0.0056553934760041084	0	10
0.035630241726476053	0.01448793130366496	0	10
0.036868538327006248	0.012191610763345408	0	10
0.038470216880167746	0.010157924145409261	0	10
0.040381803795324356	0.0084311719726361135	0	10
0.042559971334484553	0.0069975773578814255	0	10
0.044883554269953184	0.0058547638228207861	0	10
0.047312076928490508	0.0049383335831703267	0	10
0.049801231588336964	0.0042014969273567546	0	10
0.031196311927071497	0.012651337446141348	0	10
0.031881455037631866	0.011221098003557398	0	10
0.032639744771727909	0.0099339336457754859	0	10
0.03355014817879344	0.0086847620992593962	0	10
0.034599870705422253	0.0075431693936517299	0	10
0.035778208898706094	0.0065393743000255302	0	10
0.037064465031977599	0.005681526275295474	0	10
0.038440101510093534	0.0049567819815709048	0	10
0.039866348661218326	0.0043540531089814602	0	10
0.041319696891128792	0.0038523619546296252	0	10
0.042807938506634398	0.0034259805506536246	0	10
0.044318703121734075	0.0030620693376930256	0	10
0.045838259024312392	0.0027507208278119838	0	10
0.047351967357087181	0.0024840628752318024	0	10
0.048878452791003113	0.0022508650094392531	0	10
0.050418760624024284	0.0020455213153003642	0	10
0.027039807861131547	0.01092965708997031	0	10
0.027786273707323672	0.0091350110351896985	0	10
0.0284778351410735	0.0075427037826193517	0	10
0.029351200177175286	0.0058204075883367436	0	10
0.03041427858474469	0.0043399466207038884	0	10
0.031872031857579433	0.003146934596891077	0	10
0.033563399931220754	0.0023747690909557617	0	10
0.035343836631176434	0.0018810839594244843	0	10
0.037171607674279142	0.0015410583664245588	0	10
0.039033957783577024	0.0012910723845643158	0	10
0.040892235773451906	0.0011014983356741983	0	10
0.042748232210180939	0.00095208814305715761	0	10
0.044602854967187452	0.0008311487870311284	0	10
0.046456606984242692	0.00073134427871424936	0	10
0.048330841843378415	0.00064689886889039412	0	10
0.050183627659396622	0.00057623778818605695	0	10
0.050181110546440151	0.0092587615143267781	0	10
0.050140393642682766	0.009456702514913368	0	10
0.050091630024421567	0.0096528162969351447	0	10
0.050034900993208564	0.0098467758880422685	0	10
0.049970301130997402	0.010038257907477794	0	10
0.04989793814245079	0.010226943105236948	0	10
0.049817932675369013	0.010412516894339384	0	10
0.04973041811953887	0.010594669875326963	0	10
0.049635540384338421	0.0107730983521126	0	10
0.04953345765546837	0.010947504838320115	0	10
0.049424340131215612	0.011117598553270894	0	10
0.049308369738688705	0.011283095906790414	0	10
0.049185739830498398	0.011443720972026339	0	10
0.049056654862388839	0.011599205945489894	0	10
0.048921330052357034	0.011749291593553469	0	10
0.048779991021828818	0.011893727684660066	0	10
0.049231207130244981	0.0083579754576256476	0	10
0.049451298580203994	0.0083373439928714835	0	10
0.049668349938162888	0.0083792320781841713	0	10
0.049864958611921313	0.0084802812399121033	0	10
0.050025361048536561	0.0086323896289340601	0	10
0.050136696613462928	0.0088233616050601149	0	10
0.050190038721527074	0.0090378855505539382	0	10
0.050672811156451315	0.0093494836732221902	0	10
0.050779076849969094	0.0050352631230312604	0	10
0.050729835509327706	0.0052363720002955114	0	10
0.05062647183500088	0.0054157750130135454	0	10
0.050477184545874049	0.0055592420665408612	0	10
0.050014408354804051	0.0041758121640676138	0	10
0.050226539239142311	0.00420904661511545	0	10
0.050421646491001226	0.004298697053478252	0	10
0.050585034584213082	0.0044380109861022954	0	10
0.050704397087436071	0.0046164952533387241	0	10
0.050770743587587923	0.0048207063763075365	0	10
0.051276636644701556	0.005084601248915699	0	10
0.038217270032826829	0.015830111564471731	0	10
0.035532688603641505	0.014718121527208224	0	10
0.051009037371024794	0.0013952157304951633	0	10
0.050960665060892599	0.0016281308621248474	0	10
0.050834379840498302	0.0018297279405748196	0	10
0.050645917317855345	0.001974887220294208	0	10
0.050398994033377748	0.00059805122364680696	0	10
0.050600564983074629	0.00067696670531341833	0	10
0.050773495544437067	0.00080717239626143479	0	10
0.050905050013384329	0.00097907912303028116	0	10
0.050985539883883678	0.0011800265832167067	0	10
0.051508850438497747	0.0014088867795873663	0	10
0.031099166264231017	0.012881696445140308	0	10
0.02694413817110073	0.011160627456924524	0	10
0.047605770797387828	0.019718955911503071	0	10
0.051528115000000006	0	0	10
0.043629704457521692	0.019739454214222438	0	10
0.043239624603103065	0.021253964895236493	0	10
0.042992829734286843	0.022779253474795206	0	10
0.042880127861570687	0.024330340581578708	0	10
0.0428967367023518	0.025880532464664492	0	10
0.040336171259871947	0.01927608784572022	0	10
0.039938837218450034	0.021629302877452721	0	10
0.039878654116561871	0.024005323033064296	0	10
0.040124834176728082	0.026374759007145785	0	10
0.040634028518086569	0.02869881233601021	0	10
0.038123495678068414	0.016061867005001052	0	10
0.037443267685787561	0.018253669512147318	0	10
0.037098633315810828	0.020501405119679707	0	10
0.037078355379567218	0.022794057642426691	0	10
0.037360847867429547	0.025074830825169203	0	10
0.03789943504686337	0.027297576932606323	0	10
0.038646501144147617	0.029458918214396716	0	10
0.039562064703357915	0.031564130549036583	0	10
0.035438900010293442	0.014949871069920748	0	10
0.03469076410781069	0.017449222819113812	0	10
0.034385288275681249	0.020019814183686348	0	10
0.034515986175419469	0.02259250842501756	0	10
0.035042478739354496	0.025146409936083705	0	10
0.035877408789400572	0.027597522386676065	0	10
0.036946619592576238	0.02996276126373424	0	10
0.038185695536023169	0.032243881599086366	0	10
0.031004970210888869	0.013113277212397183	0	10
0.030478107541877776	0.014609078560529242	0	10
0.030104136709072016	0.016055433019501915	0	10
0.029864591460416576	0.017582483113660105	0	10
0.029799629433871808	0.019131976974091892	0	10
0.029923050043249036	0.020674978218718873	0	10
0.030225980321914002	0.02219108880841205	0	10
0.030686230599318468	0.023676282295254307	0	10
0.031268545958501884	0.025110985000487557	0	10
0.031941469129993551	0.026493406606586205	0	10
0.032692317686238308	0.027847249527077511	0	10
0.03350326550391771	0.029172845517625438	0	10
0.034357597144373669	0.030467490443379826	0	10
0.035239394924690547	0.031726399516750228	0	10
0.036153887334134854	0.032970683510714811	0	10
0.037097849529379362	0.034205045543158341	0	10
0.026848466144949065	0.011391596856225802	0	10
0.026107290811550617	0.013188434313157459	0	10
0.0254703673349372	0.014803373348594068	0	10
0.024870082356226987	0.016638783006261891	0	10
0.024574948317657122	0.018437336946682401	0	10
0.024762148650100325	0.02031171106327586	0	10
0.025412123019009327	0.022053692363075264	0	10
0.026321993778744647	0.023661739331364062	0	10
0.027373988675191755	0.025194603032985624	0	10
0.028514102283444837	0.026688250207188617	0	10
0.029694054155907888	0.028136300270666045	0	10
0.030900792861799156	0.029554336897313113	0	10
0.032126692151063022	0.030951270264093649	0	10
0.033366920328337157	0.032332643330615501	0	10
0.034632492584841718	0.033717639430973112	0	10
0.035892645070102439	0.035077721774897846	0	10
0.042030336607029102	0.028936470502690114	0	10
0.042141510832062967	0.028767713880144728	0	10
0.042245703132067013	0.028594559409845295	0	10
0.042342739791554167	0.02841729578503642	0	10
0.042432459025339098	0.028236218549985037	0	10
0.042514711248275883	0.02805162960723178	0	10
0.042589359324655178	0.027863836714241447	0	10
0.042656278796844818	0.02767315297029176	0	10
0.042715358092792872	0.027479896294455994	0	10
0.042766498712047081	0.027284388895549697	0	10
0.042809615389980578	0.02708695673492538	0	10
0.04284463623995001	0.026887928983010657	0	10
0.042871502873149225	0.026687637470496156	0	10
0.042890170495958391	0.026486416135087947	0	10
0.042900607984626644	0.026284600464747138	0	10
0.042902797937163367	0.026082526938344758	0	10
0.040721701530873566	0.028901739284717905	0	10
0.040862741038987287	0.029071956090098581	0	10
0.041045838875241283	0.029195815228001541	0	10
0.041256314749186999	0.029263386006965181	0	10
0.041477293273189282	0.029269250784261881	0	10
0.041691056985471278	0.029212939337873223	0	10
0.041880466888391789	0.029098966567622588	0	10
0.042442171696440385	0.029220005084583743	0	10
0.039466698282359935	0.032345760883652021	0	10
0.039574084847348048	0.032168736546899411	0	10
0.039627852779161414	0.031968790304996331	0	10
0.039623737251100889	0.031761781724083782	0	10
0.038318272402888549	0.032412782206541584	0	10
0.038491771895408165	0.032539281087651327	0	10
0.038693125989158958	0.032613850315596757	0	10
0.038907168644306427	0.03263087331779977	0	10
0.039117778115452792	0.03258906791755016	0	10
0.039309091245463133	0.032491582907870561	0	10
0.039853413510644968	0.032662701465169211	0	10
0.037055402731100924	0.035082269722598383	0	10
0.037185894211601095	0.034883369465065941	0	10
0.037239147737136026	0.034651521668122132	0	10
0.037208527720417404	0.034415615429320034	0	10
0.036060356521719315	0.035214584370244183	0	10
0.036258690379367263	0.035301314883438004	0	10
0.036473040078999458	0.035331525929033353	0	10
0.036687619548317299	0.035302992573891523	0	10
0.036886625793324253	0.035217816195378407	0	10
0.037418490831955725	0.035426024040415123	0	10
0.03643587953826026	0.03643587953826026	0	10
0.014999999999999999	0	0	10
0.010606601717798213	0.010606601717798212	0	10
0.018288542643837218	0.044152447686790511	0	10
0.019739454214222438	0.043629704457521692	0	10
0.021253964895236496	0.043239624603103065	0	10
0.022779253474795206	0.042992829734286836	0	10
0.024330340581578708	0.042880127861570687	0	10
0.025880532464664492	0.042896736702351793	0	10
0.017014899471074051	0.041077601065481771	0	10
0.01927608784572022	0.040336171259871947	0	10
0.021629302877452721	0.039938837218450034	0	10
0.024005323033064303	0.039878654116561871	0	10
0.026374759007145789	0.040124834176728089	0	10
0.02869881233601021	0.040634028518086569	0	10
0.016061867005001056	0.038123495678068414	0	10
0.018253669512147321	0.037443267685787561	0	10
0.020501405119679707	0.037098633315810821	0	10
0.022794057642426695	0.037078355379567218	0	10
0.025074830825169207	0.037360847867429547	0	10
0.027297576932606326	0.03789943504686337	0	10
0.029458918214396716	0.038646501144147631	0	10
0.031564130549036583	0.039562064703357908	0	10
0.014949871069920748	0.035438900010293442	0	10
0.017449222819113812	0.034690764107810683	0	10
0.020019814183686348	0.034385288275681256	0	10
0.02259250842501756	0.034515986175419469	0	10
0.025146409936083709	0.035042478739354503	0	10
0.027597522386676065	0.035877408789400565	0	10
0.029962761263734244	0.036946619592576238	0	10
0.032243881599086359	0.038185695536023169	0	10
0.013113277212397184	0.031004970210888872	0	10
0.014609078560529246	0.030478107541877776	0	10
0.016055433019501918	0.030104136709072013	0	10
0.017582483113660105	0.029864591460416572	0	10
0.019131976974091892	0.029799629433871804	0	10
0.020674978218718873	0.029923050043249039	0	10
0.022191088808412054	0.030225980321914002	0	10
0.023676282295254307	0.030686230599318461	0	10
0.02511098500048756	0.031268545958501877	0	10
0.026493406606586205	0.031941469129993544	0	10
0.027847249527077511	0.032692317686238308	0	10
0.029172845517625442	0.03350326550391771	0	10
0.030467490443379826	0.034357597144373669	0	10
0.031726399516750228	0.035239394924690547	0	10
0.032970683510714818	0.036153887334134847	0	10
0.034205045543158348	0.037097849529379362	0	10
0.011391596856225802	0.026848466144949065	0	10
0.013188434313157461	0.026107290811550617	0	10
0.014803373348594068	0.025470367334937197	0	10
0.016638783006261891	0.024870082356226991	0	10
0.018437336946682405	0.024574948317657122	0	10
0.020311711063275856	0.024762148650100325	0	10
0.022053692363075268	0.025412123019009331	0	10
0.023661739331364066	0.026321993778744647	0	10
0.025194603032985628	0.027373988675191759	0	10
0.026688250207188621	0.028514102283444843	0	10
0.028136300270666048	0.029694054155907885	0	10
0.029554336897313113	0.03090079286179916	0	10
0.030951270264093653	0.032126692151063015	0	10
0.032332643330615508	0.033366920328337157	0	10
0.033717639430973119	0.034632492584841718	0	10
0.035077721774897846	0.035892645070102432	0	10
0.028936470502690121	0.042030336607029102	0	10
0.028767713880144725	0.04214151083206296	0	10
0.028594559409845302	0.042245703132067013	0	10
0.02841729578503642	0.042342739791554174	0	10
0.028236218549985037	0.042432459025339098	0	10
0.02805162960723178	0.042514711248275883	0	10
0.027863836714241447	0.042589359324655178	0	10
0.027673152970291763	0.042656278796844818	0	10
0.027479896294455998	0.042715358092792866	0	10
0.0272843888955497	0.042766498712047074	0	10
0.027086956734925383	0.042809615389980571	0	10
0.026887928983010657	0.04284463623995001	0	10
0.026687637470496156	0.042871502873149218	0	10
0.026486416135087947	0.042890170495958391	0	10
0.026284600464747145	0.042900607984626651	0	10
0.026082526938344758	0.042902797937163367	0	10
0.028901739284717905	0.040721701530873566	0	10
0.029071956090098584	0.04086274103898728	0	10
0.029195815228001541	0.04104583887524129	0	10
0.029263386006965181	0.041256314749186999	0	10
0.029269250784261885	0.041477293273189275	0	10
0.029212939337873223	0.041691056985471271	0	10
0.029098966567622592	0.041880466888391789	0	10
0.029220005084583743	0.042442171696440385	0	10
0.032345760883652028	0.039466698282359935	0	10
0.032168736546899418	0.039574084847348055	0	10
0.031968790304996345	0.039627852779161414	0	10
0.031761781724083782	0.039623737251100896	0	10
0.032412782206541584	0.038318272402888542	0	10
0.032539281087651327	0.038491771895408158	0	10
0.032613850315596757	0.038693125989158951	0	10
0.03263087331779977	0.038907168644306427	0	10
0.032589067917550153	0.039117778115452792	0	10
0.032491582907870555	0.039309091245463133	0	10
0.032662701465169211	0.039853413510644968	0	10
0.015830111564471734	0.038217270032826822	0	10
0.014718121527208227	0.035532688603641505	0	10
0.035082269722598383	0.037055402731100924	0	10
0.034883369465065948	0.037185894211601095	0	10
0.034651521668122125	0.037239147737136026	0	10
0.034415615429320034	0.037208527720417404	0	10
0.03521458437024419	0.036060356521719322	0	10
0.035301314883437997	0.036258690379367263	0	10
0.03533152592903336	0.036473040078999458	0	10
0.035302992573891523	0.036687619548317292	0	10
0.035217816195378407	0.036886625793324253	0	10
0.03542602404041513	0.037418490831955732	0	10
0.01288169644514031	0.031099166264231017	0	10
0.011160627456924525	0.02694413817110073	0	10
0.019718955911503074	0.047605770797387828	0	10
0.016892957951280475	0.044808761814876585	0	10
0.015546209068292304	0.045603854477337405	0	10
0.014293156845117949	0.046507886049907771	0	10
0.013116680375250295	0.047524978002875397	0	10
0.012032273406523963	0.048632873419489672	0	10
0.014891727794501026	0.042152232655413735	0	10
0.012946795892887168	0.04353524936685621	0	10
0.011224140049160346	0.045172793451667109	0	10
0.0097227713942364125	0.047022313286463925	0	10
0.0084394722972736119	0.049025721926859535	0	10
0.015599927238745509	0.038314837394250921	0	10
0.013569094996826007	0.039383681983981018	0	10
0.011736012606384887	0.04072937777434113	0	10
0.010100523794419728	0.042336189253853643	0	10
0.0086875259643557842	0.044148691791521012	0	10
0.0074966457657687849	0.046101249283783591	0	10
0.0064966021923406336	0.048157803863980261	0	10
0.0056553934760041127	0.050293814982966568	0	10
0.014487931303664959	0.035630241726476046	0	10
0.01219161076334541	0.036868538327006248	0	10
0.010157924145409258	0.038470216880167739	0	10
0.0084311719726361152	0.040381803795324356	0	10
0.0069975773578814203	0.042559971334484546	0	10
0.0058547638228207931	0.044883554269953191	0	10
0.0049383335831703311	0.047312076928490501	0	10
0.0042014969273567564	0.049801231588336964	0	10
0.012651337446141348	0.031196311927071493	0	10
0.011221098003557401	0.031881455037631866	0	10
0.0099339336457754928	0.032639744771727909	0	10
0.0086847620992594014	0.03355014817879344	0	10
0.0075431693936517351	0.034599870705422253	0	10
0.0065393743000255293	0.035778208898706088	0	10
0.0056815262752954732	0.037064465031977592	0	10
0.0049567819815709083	0.038440101510093541	0	10
0.0043540531089814698	0.039866348661218326	0	10
0.0038523619546296309	0.041319696891128799	0	10
0.0034259805506536255	0.042807938506634391	0	10
0.0030620693376930234	0.044318703121734068	0	10
0.0027507208278119803	0.045838259024312392	0	10
0.0024840628752318059	0.047351967357087181	0	10
0.0022508650094392631	0.048878452791003113	0	10
0.0020455213153003637	0.050418760624024277	0	10
0.01092965708997031	0.027039807861131547	0	10
0.0091350110351896985	0.027786273707323672	0	10
0.0075427037826193543	0.0284778351410735	0	10
0.0058204075883367436	0.029351200177175282	0	10
0.0043399466207038901	0.03041427858474469	0	10
0.0031469345968910753	0.031872031857579433	0	10
0.0023747690909557643	0.033563399931220747	0	10
0.0018810839594244864	0.035343836631176434	0	10
0.0015410583664245588	0.037171607674279142	0	10
0.0012910723845643152	0.039033957783577017	0	10
0.0011014983356742031	0.040892235773451906	0	10
0.00095208814305715664	0.042748232210180939	0	10
0.00083114878703113501	0.044602854967187452	0	10
0.00073134427871425142	0.046456606984242685	0	10
0.00064689886889039358	0.048330841843378408	0	10
0.00057623778818605836	0.050183627659396622	0	10
0.0092587615143267868	0.050181110546440144	0	10
0.0094567025149133697	0.050140393642682773	0	10
0.0096528162969351482	0.05009163002442156	0	10
0.0098467758880422668	0.050034900993208557	0	10
0.010038257907477796	0.049970301130997402	0	10
0.01022694310523695	0.049897938142450783	0	10
0.010412516894339384	0.049817932675369013	0	10
0.010594669875326965	0.049730418119538863	0	10
0.010773098352112601	0.049635540384338428	0	10
0.010947504838320118	0.04953345765546837	0	10
0.011117598553270897	0.049424340131215619	0	10
0.011283095906790414	0.049308369738688698	0	10
0.011443720972026346	0.049185739830498398	0	10
0.011599205945489896	0.049056654862388839	0	10
0.011749291593553472	0.04892133005235702	0	10
0.011893727684660065	0.048779991021828818	0	10
0.0083579754576256493	0.049231207130244981	0	10
0.0083373439928714904	0.049451298580203987	0	10
0.0083792320781841678	0.049668349938162881	0	10
0.0084802812399121068	0.049864958611921306	0	10
0.0086323896289340653	0.050025361048536568	0	10
0.0088233616050601184	0.050136696613462928	0	10
0.0090378855505539382	0.050190038721527067	0	10
0.009349483673222192	0.050672811156451315	0	10
0.0050352631230312639	0.050779076849969094	0	10