[Format]      =  4.0
[Frequency]   =  0
[Precision]   =  1e-008
[MinAngle]    =  30
[DoSmartMesh] =  1
[Depth]       =  1
[LengthUnits] =  inches
[ProblemType] =  planar
[Coordinates] =  cartesian
[ACSolver]    =  0
[PrevType]    =  0
[PrevSoln]    =  ""
[Comment]     =  "Add comments here."
[PointProps]   = 0
[BdryProps]   = 1
  <BeginBdry>
    <BdryName> = "A=0"
    <BdryType> = 0
    <A_0> = 0
    <A_1> = 0
    <A_2> = 0
    <Phi> = 0
    <c0> = 0
    <c0i> = 0
    <c1> = 0
    <c1i> = 0
    <Mu_ssd> = 0
    <Sigma_ssd> = 0
    <innerangle> = 0
    <outerangle> = 0
  <EndBdry>
[BlockProps]  = 11
  <BeginBlock>
    <BlockName> = "M250-35A"
    <Mu_x> = 1
    <Mu_y> = 1
    <H_c> = 0
    <H_cAngle> = 0
    <J_re> = 0
    <J_im> = 0
    <Sigma> = 0
    <d_lam> = 0.34999999999999998
    <Phi_h> = 0
    <Phi_hx> = 0
    <Phi_hy> = 0
    <LamType> = 0
    <LamFill> = 0.97999999999999998
    <NStrands> = 0
    <WireD> = 0
    <BHPoints> = 26
      0	0
      0.10000000000000001	12
      0.20000000000000001	24
      0.29999999999999999	36
      0.40000000000000002	48
      0.5	60
      0.59999999999999998	72
      0.69999999999999996	84
      0.80000000000000004	96
      0.90000000000000002	109
      1	128
      1.1000000000000001	155
      1.2	200
      1.3	295
      1.3999999999999999	578
      1.5	1567
      1.6000000000000001	3673
      1.7	6996
      1.8162	13134.909
      1.8924000000000001	28200.237000000001
      1.998	100790
      2.1000000000000001	180370
      2.2000000000000002	259950
      2.2999999999999998	339530
      2.3999999999999999	419110
      2.5	498690
  <EndBlock>
  <BeginBlock>
    <BlockName> = "N42 MotorCAD"
    <Mu_x> = 1.0640000000000001
    <Mu_y> = 1.0640000000000001
    <H_c> = 957000
    <H_cAngle> = 0
    <J_re> = 0
    <J_im> = 0
    <Sigma> = 0
    <d_lam> = 0
    <Phi_h> = 0
    <Phi_hx> = 0
    <Phi_hy> = 0
    <LamType> = 0
    <LamFill> = 1
    <NStrands> = 0
    <WireD> = 0
    <BHPoints> = 0
  <EndBlock>
  <BeginBlock>
    <BlockName> = "Air"
    <Mu_x> = 1
    <Mu_y> = 1
    <H_c> = 0
    <H_cAngle> = 0
    <J_re> = 0
    <J_im> = 0
    <Sigma> = 0
    <d_lam> = 0
    <Phi_h> = 0
    <Phi_hx> = 0
    <Phi_hy> = 0
    <LamType> = 0
    <LamFill> = 1
    <NStrands> = 0
    <WireD> = 0
    <BHPoints> = 0
  <EndBlock>
  <BeginBlock>
    <BlockName> = "20 SWG"
    <Mu_x> = 1
    <Mu_y> = 1
    <H_c> = 0
    <H_cAngle> = 0
    <J_re> = 0
    <J_im> = 0
    <Sigma> = 58
    <d_lam> = 0
    <Phi_h> = 0
    <Phi_hx> = 0
    <Phi_hy> = 0
    <LamType> = 3
    <LamFill> = 1
    <NStrands> = 1
    <WireD> = 0.91439999999999999
    <BHPoints> = 0
  <EndBlock>
  <BeginBlock>
    <BlockName> = "u1"
    <Mu_x> = 2.6498996896116669
    <Mu_y> = 2.6498996896116669
    <H_c> = 0
    <H_cAngle> = 0
    <J_re> = 0
    <J_im> = 0
    <Sigma> = 0
    <d_lam> = 0
    <Phi_h> = 0
    <Phi_hx> = 0
    <Phi_hy> = 0
    <LamType> = 0
    <LamFill> = 1
    <NStrands> = 0
    <WireD> = 0
    <BHPoints> = 0
  <EndBlock>
  <BeginBlock>
    <BlockName> = "u2"
    <Mu_x> = 0.12953316809300527
    <Mu_y> = 0.12953316809300527
    <H_c> = 0
    <H_cAngle> = 0
    <J_re> = 0
    <J_im> = 0
    <Sigma> = 0
    <d_lam> = 0
    <Phi_h> = 0
    <Phi_hx> = 0
    <Phi_hy> = 0
    <LamType> = 0
    <LamFill> = 1
    <NStrands> = 0
    <WireD> = 0
    <BHPoints> = 0
  <EndBlock>
  <BeginBlock>
    <BlockName> = "u3"
    <Mu_x> = 14.398967120915913
    <Mu_y> = 14.398967120915913
    <H_c> = 0
    <H_cAngle> = 0
    <J_re> = 0
    <J_im> = 0
    <Sigma> = 0
    <d_lam> = 0
    <Phi_h> = 0
    <Phi_hx> = 0
    <Phi_hy> = 0
    <LamType> = 0
    <LamFill> = 1
    <NStrands> = 0
    <WireD> = 0
    <BHPoints> = 0
  <EndBlock>
  <BeginBlock>
    <BlockName> = "u4"
    <Mu_x> = 0.042882574356338271
    <Mu_y> = 0.042882574356338271
    <H_c> = 0
    <H_cAngle> = 0
    <J_re> = 0
    <J_im> = 0
    <Sigma> = 0
    <d_lam> = 0
    <Phi_h> = 0
    <Phi_hx> = 0
    <Phi_hy> = 0
    <LamType> = 0
    <LamFill> = 1
    <NStrands> = 0
    <WireD> = 0
    <BHPoints> = 0
  <EndBlock>
  <BeginBlock>
    <BlockName> = "u5"
    <Mu_x> = 37.197476986533054
    <Mu_y> = 37.197476986533054
    <H_c> = 0
    <H_cAngle> = 0
    <J_re> = 0
    <J_im> = 0
    <Sigma> = 0
    <d_lam> = 0
    <Phi_h> = 0
    <Phi_hx> = 0
    <Phi_hy> = 0
    <LamType> = 0
    <LamFill> = 1
    <NStrands> = 0
    <WireD> = 0
    <BHPoints> = 0
  <EndBlock>
  <BeginBlock>
    <BlockName> = "u6"
    <Mu_x> = 0.015664246064106369
    <Mu_y> = 0.015664246064106369
    <H_c> = 0
    <H_cAngle> = 0
    <J_re> = 0
    <J_im> = 0
    <Sigma> = 0
    <d_lam> = 0
    <Phi_h> = 0
    <Phi_hx> = 0
    <Phi_hy> = 0
    <LamType> = 0
    <LamFill> = 1
    <NStrands> = 0
    <WireD> = 0
    <BHPoints> = 0
  <EndBlock>
  <BeginBlock>
    <BlockName> = "u7"
    <Mu_x> = 142.03015659052124
    <Mu_y> = 142.03015659052124
    <H_c> = 0
    <H_cAngle> = 0
    <J_re> = 0
    <J_im> = 0
    <Sigma> = 0
    <d_lam> = 0
    <Phi_h> = 0
    <Phi_hx> = 0
    <Phi_hy> = 0
    <LamType> = 0
    <LamFill> = 1
    <NStrands> = 0
    <WireD> = 0
    <BHPoints> = 0
  <EndBlock>
[CircuitProps]  = 0
[NumPoints] = 168
10.8704	40.568885000000002	0	0
14.882095	55.540734999999998	0	0
29.698485000000002	29.698485000000002	0	0
40.658639999999998	40.658639999999998	0	0
40.568885000000002	10.8704	0	0
55.540734999999998	14.882095	0	0
40.568885000000002	-10.8704	0	0
55.540734999999998	-14.882095	0	0
29.698485000000002	-29.698485000000002	0	0
40.658639999999998	-40.658639999999998	0	0
10.8704	-40.568885000000002	0	0
14.882095	-55.540734999999998	0	0
-10.8704	-40.568885000000002	0	0
-14.882095	-55.540734999999998	0	0
-29.698485000000002	-29.698485000000002	0	0
-40.658639999999998	-40.658639999999998	0	0
-40.568885000000002	-10.8704	0	0
-55.540734999999998	-14.882095	0	0
-40.568885000000002	10.8704	0	0
-55.540734999999998	14.882095	0	0
-29.698485000000002	29.698485000000002	0	0
-40.658639999999998	40.658639999999998	0	0
-10.8704	40.568885000000002	0	0
-14.882095	55.540734999999998	0	0
12.312049	40.154868	0	0
17.1755	40.113900000000001	0	0
28.619112000000001	30.739981	0	0
26.151906	34.931368999999997	0	0
24.316700999999998	52.105164000000002	0	0
32.966045000000001	47.111462000000003	0	0
30.739981	28.619112000000001	0	0
34.931368999999997	26.151906	0	0
40.154868	12.312049	0	0
40.113900000000001	17.1755	0	0
47.111462000000003	32.966045000000001	0	0
52.105164000000002	24.316700999999998	0	0
40.931159999999998	9.4148870000000002	0	0
43.327406000000003	5.182531	0	0
40.931159999999998	-9.4148870000000002	0	0
43.327406000000003	-5.182531	0	0
57.282746000000003	4.9937009999999997	0	0
57.282746000000003	-4.9937009999999997	0	0
40.154868	-12.312049	0	0
40.113900000000001	-17.1755	0	0
30.739981	-28.619112000000001	0	0
34.931368999999997	-26.151906	0	0
52.105164000000002	-24.316700999999998	0	0
47.111462000000003	-32.966045000000001	0	0
28.619112000000001	-30.739981	0	0
26.151906	-34.931368999999997	0	0
12.312049	-40.154868	0	0
17.1755	-40.113900000000001	0	0
32.966045000000001	-47.111462000000003	0	0
24.316700999999998	-52.105164000000002	0	0
9.4148870000000002	-40.931159999999998	0	0
5.182531	-43.327406000000003	0	0
-9.4148870000000002	-40.931159999999998	0	0
-5.182531	-43.327406000000003	0	0
4.9937009999999997	-57.282746000000003	0	0
-4.9937009999999997	-57.282746000000003	0	0
-12.312049	-40.154868	0	0
-17.1755	-40.113900000000001	0	0
-28.619112000000001	-30.739981	0	0
-26.151906	-34.931368999999997	0	0
-24.316700999999998	-52.105164000000002	0	0
-32.966045000000001	-47.111462000000003	0	0
-30.739981	-28.619112000000001	0	0
-34.931368999999997	-26.151906	0	0
-40.154868	-12.312049	0	0
-40.113900000000001	-17.1755	0	0
-47.111462000000003	-32.966045000000001	0	0
-52.105164000000002	-24.316700999999998	0	0
-40.931159999999998	-9.4148870000000002	0	0
-43.327406000000003	-5.182531	0	0
-40.931159999999998	9.4148870000000002	0	0
-43.327406000000003	5.182531	0	0
-57.282746000000003	-4.9937009999999997	0	0
-57.282746000000003	4.9937009999999997	0	0
-40.154868	12.312049	0	0
-40.113900000000001	17.1755	0	0
-30.739981	28.619112000000001	0	0
-34.931368999999997	26.151906	0	0
-52.105164000000002	24.316700999999998	0	0
-47.111462000000003	32.966045000000001	0	0
-28.619112000000001	30.739981	0	0
-26.151906	34.931368999999997	0	0
-12.312049	40.154868	0	0
-17.1755	40.113900000000001	0	0
-32.966045000000001	47.111462000000003	0	0
-24.316700999999998	52.105164000000002	0	0
-9.4148870000000002	40.931159999999998	0	0
-5.182531	43.327406000000003	0	0
9.4148870000000002	40.931159999999998	0	0
5.182531	43.327406000000003	0	0
-4.9937009999999997	57.282746000000003	0	0
4.9937009999999997	57.282746000000003	0	0
31.674609	26.813599	0	0
28.621635000000001	24.229156	0	0
14.198725	34.708013999999999	0	0
15.713255999999999	38.410201999999998	0	0
41.385936000000001	3.074789	0	0
37.396929999999998	2.7784239999999998	0	0
31.887868000000001	19.733571000000001	0	0
35.289240999999997	21.838486	0	0
35.289240999999997	-21.838486	0	0
31.887868000000001	-19.733571000000001	0	0
37.396929999999998	-2.7784239999999998	0	0
41.385936000000001	-3.074789	0	0
15.713255999999999	-38.410201999999998	0	0
14.198725	-34.708013999999999	0	0
28.621635000000001	-24.229156	0	0
31.674609	-26.813599	0	0
-9.8646589999999996	-40.310526000000003	0	0
-8.9138479999999998	-36.425173999999998	0	0
8.9138479999999998	-36.425173999999998	0	0
9.8646589999999996	-40.310526000000003	0	0
-31.674609	-26.813599	0	0
-28.621635000000001	-24.229156	0	0
-14.198725	-34.708013999999999	0	0
-15.713255999999999	-38.410201999999998	0	0
-41.385936000000001	-3.074789	0	0
-37.396929999999998	-2.7784239999999998	0	0
-31.887868000000001	-19.733571000000001	0	0
-35.289240999999997	-21.838486	0	0
-35.289240999999997	21.838486	0	0
-31.887868000000001	19.733571000000001	0	0
-37.396929999999998	2.7784239999999998	0	0
-41.385936000000001	3.074789	0	0
-15.713255999999999	38.410201999999998	0	0
-14.198725	34.708013999999999	0	0
-28.621635000000001	24.229156	0	0
-31.674609	26.813599	0	0
9.8646589999999996	40.310526000000003	0	0
8.9138479999999998	36.425173999999998	0	0
-8.9138479999999998	36.425173999999998	0	0
-9.8646589999999996	40.310526000000003	0	0
62.5	0	0	0
-62.5	0	0	0
37.5	0	0	0
-37.5	0	0	0
10	0	0	0
-10	0	0	0
-24.393087970137632	33.57420526656032	0	0
-39.468845426248869	12.824205266560321	0	0
-39.468845426248869	-12.82420526656033	0	0
-24.393087970137639	-33.574205266560313	0	0
-7.6234263246922724e-015	-41.5	0	0
24.393087970137625	-33.574205266560327	0	0
39.468845426248869	-12.824205266560329	0	0
39.468845426248876	12.824205266560307	0	0
24.393087970137671	33.574205266560291	0	0
1.2705710541153791e-014	41.5	0	0
1.8	134.505	0	0
1.8	-134.505	0	0
1.8	-136.42649999999998	0	0
1.8	136.42649999999998	0	0
1.8	-138.34799999999998	0	0
1.8	138.34799999999998	0	0
1.8	-140.26949999999999	0	0
1.8	140.26949999999999	0	0
1.8	-142.191	0	0
1.8	142.191	0	0
1.8	-144.11249999999998	0	0
1.8	144.11249999999998	0	0
1.8	-146.03399999999999	0	0
1.8	146.03399999999999	0	0
1.8	-147.9555	0	0
1.8	147.9555	0	0
[NumSegments] = 80
0	1	-1	0	0	0
2	3	-1	0	0	0
4	5	-1	0	0	0
6	7	-1	0	0	0
8	9	-1	0	0	0
10	11	-1	0	0	0
12	13	-1	0	0	0
14	15	-1	0	0	0
16	17	-1	0	0	0
18	19	-1	0	0	0
20	21	-1	0	0	0
22	23	-1	0	0	0
24	25	-1	0	0	0
26	27	-1	0	0	0
25	28	-1	0	0	0
27	29	-1	0	0	0
30	31	-1	0	0	0
32	33	-1	0	0	0
31	34	-1	0	0	0
33	35	-1	0	0	0
36	37	-1	0	0	0
38	39	-1	0	0	0
37	40	-1	0	0	0
39	41	-1	0	0	0
42	43	-1	0	0	0
44	45	-1	0	0	0
43	46	-1	0	0	0
45	47	-1	0	0	0
48	49	-1	0	0	0
50	51	-1	0	0	0
49	52	-1	0	0	0
51	53	-1	0	0	0
54	55	-1	0	0	0
56	57	-1	0	0	0
55	58	-1	0	0	0
57	59	-1	0	0	0
60	61	-1	0	0	0
62	63	-1	0	0	0
61	64	-1	0	0	0
63	65	-1	0	0	0
66	67	-1	0	0	0
68	69	-1	0	0	0
67	70	-1	0	0	0
69	71	-1	0	0	0
72	73	-1	0	0	0
74	75	-1	0	0	0
73	76	-1	0	0	0
75	77	-1	0	0	0
78	79	-1	0	0	0
80	81	-1	0	0	0
79	82	-1	0	0	0
81	83	-1	0	0	0
84	85	-1	0	0	0
86	87	-1	0	0	0
85	88	-1	0	0	0
87	89	-1	0	0	0
90	91	-1	0	0	0
92	93	-1	0	0	0
91	94	-1	0	0	0
93	95	-1	0	0	0
96	97	-1	0	0	0
98	99	-1	0	0	0
100	101	-1	0	0	0
102	103	-1	0	0	0
104	105	-1	0	0	0
106	107	-1	0	0	0
108	109	-1	0	0	0
110	111	-1	0	0	0
112	113	-1	0	0	0
114	115	-1	0	0	0
116	117	-1	0	0	0
118	119	-1	0	0	0
120	121	-1	0	0	0
122	123	-1	0	0	0
124	125	-1	0	0	0
126	127	-1	0	0	0
128	129	-1	0	0	0
130	131	-1	0	0	0
132	133	-1	0	0	0
134	135	-1	0	0	0
[NumArcSegments] = 122
136	137	180	5	0	0	0	5
137	136	180	5	0	0	0	5
138	101	4.2490127283896211	5	0	0	0	5
101	102	27.501974115938157	5	0	0	0	5
102	97	8.4980259334028254	5	0	0	0	5
97	98	27.50197483762701	5	0	0	0	5
98	133	8.4980260377192689	5	0	0	0	5
133	134	27.501972933725153	5	0	0	0	5
134	129	8.4980260858418397	5	0	0	0	5
129	130	27.501974799561399	5	0	0	0	5
130	125	8.4980258202978138	5	0	0	0	5
125	126	27.501973967036218	5	0	0	0	5
126	139	4.2490127404606719	5	0	0	0	5
139	121	4.249012736485577	5	0	0	0	5
121	122	27.50197417033403	5	0	0	0	5
122	117	8.4980259499173094	5	0	0	0	5
117	118	27.501974870338348	5	0	0	0	5
118	113	8.4980259614748626	5	0	0	0	5
113	114	27.50197286296013	5	0	0	0	5
114	109	8.498026064357715	5	0	0	0	5
109	110	27.501974759605837	5	0	0	0	5
110	105	8.4980258081673803	5	0	0	0	5
105	106	27.501974061568074	5	0	0	0	5
106	138	4.2490127547907681	5	0	0	0	5
140	141	180	5	0	0	0	5
141	140	180	5	0	0	0	5
86	84	25.907443999999998	5	0	0	0	5
90	22	2.046277852933255	5	0	0	0	5
22	86	2.0462781470667477	5	0	0	0	5
84	20	2.0462780000000005	5	0	0	0	5
20	80	2.0462779999999987	5	0	0	0	5
78	18	2.0462781470667468	5	0	0	0	5
18	74	2.046277852933251	5	0	0	0	5
72	16	2.046277852933255	5	0	0	0	5
16	68	2.0462781470667477	5	0	0	0	5
66	14	2.0462780000000005	5	0	0	0	5
14	62	2.0462779999999987	5	0	0	0	5
60	12	2.0462781470667353	5	0	0	0	5
12	56	2.0462778529332395	5	0	0	0	5
54	10	2.0462778529332248	5	0	0	0	5
10	50	2.0462781470667193	5	0	0	0	5
48	8	2.0462779999999685	5	0	0	0	5
8	44	2.0462779999999703	5	0	0	0	5
42	6	2.046278147066718	5	0	0	0	5
6	38	2.0462778529332266	5	0	0	0	5
36	4	2.0462778529332248	5	0	0	0	5
4	32	2.0462781470667193	5	0	0	0	5
30	2	2.0462779999999685	5	0	0	0	5
2	26	2.0462779999999703	5	0	0	0	5
24	0	2.046278147066718	5	0	0	0	5
0	92	2.0462778529332266	5	0	0	0	5
80	78	25.907443999999998	5	0	0	0	5
74	72	25.907443999999998	5	0	0	0	5
68	66	25.907443999999998	5	0	0	0	5
62	60	25.907443999999998	5	0	0	0	5
56	54	25.907444000000055	5	0	0	0	5
50	48	25.907444000000055	5	0	0	0	5
44	42	25.907444000000055	5	0	0	0	5
38	36	25.907444000000055	5	0	0	0	5
32	30	25.907444000000055	5	0	0	0	5
26	24	25.907444000000055	5	0	0	0	5
92	90	25.907444000000055	5	0	0	0	5
88	21	10.017757999999994	5	0	0	0	5
21	83	10.017757999999994	5	0	0	0	5
82	19	10.017758006174535	5	0	0	0	5
19	77	10.017757993825434	5	0	0	0	5
76	17	10.017757993825436	5	0	0	0	5
17	71	10.017758006174535	5	0	0	0	5
70	15	10.017757999999985	5	0	0	0	5
15	65	10.017757999999992	5	0	0	0	5
64	13	10.017758006174551	5	0	0	0	5
13	59	10.017757993825452	5	0	0	0	5
58	11	10.017757993825462	5	0	0	0	5
11	53	10.017758006174564	5	0	0	0	5
52	9	10.017758000000015	5	0	0	0	5
9	47	10.017758000000011	5	0	0	0	5
46	7	10.017758006174564	5	0	0	0	5
7	41	10.017757993825462	5	0	0	0	5
40	5	10.017757993825462	5	0	0	0	5
5	35	10.017758006174564	5	0	0	0	5
34	3	10.017758000000015	5	0	0	0	5
3	29	10.017758000000011	5	0	0	0	5
28	1	10.017758006174564	5	0	0	0	5
1	95	10.017757993825462	5	0	0	0	5
94	23	10.017757993825462	5	0	0	0	5
23	89	10.017758006174564	5	0	0	0	5
128	142	13.750986999999995	5	0	0	0	5
142	131	13.750987000000009	5	0	0	0	5
124	143	13.750987000000009	5	0	0	0	5
143	127	13.750987000000009	5	0	0	0	5
120	144	13.750987000000009	5	0	0	0	5
144	123	13.750987000000009	5	0	0	0	5
116	145	13.750987000000009	5	0	0	0	5
145	119	13.750987000000009	5	0	0	0	5
112	146	13.750987000000009	5	0	0	0	5
146	115	13.750987000000009	5	0	0	0	5
108	147	13.750987000000009	5	0	0	0	5
147	111	13.750987000000009	5	0	0	0	5
104	148	13.750987000000009	5	0	0	0	5
148	107	13.750987000000009	5	0	0	0	5
100	149	13.750987000000009	5	0	0	0	5
149	103	13.750987000000009	5	0	0	0	5
96	150	13.750987000000009	5	0	0	0	5
150	99	13.750987000000009	5	0	0	0	5
132	151	13.750987000000009	5	0	0	0	5
151	135	13.750987000000009	5	0	0	0	5
152	153	180	1	0	0	0	1
153	152	180	1	0	0	0	1
154	155	180	1	0	0	0	1
155	154	180	1	0	0	0	1
156	157	180	1	0	0	0	1
157	156	180	1	0	0	0	1
158	159	180	1	0	0	0	1
159	158	180	1	0	0	0	1
160	161	180	1	0	0	0	1
161	160	180	1	0	0	0	1
162	163	180	1	0	0	0	1
163	162	180	1	0	0	0	1
164	165	180	1	0	0	0	1
165	164	180	1	0	0	0	1
166	167	180	1	1	0	0	1
167	166	180	1	1	0	0	1
[NumHoles] = 0
[NumBlockLabels] = 46
0.40000000000000002	18.600000000000001	1	-1	0	0	0	1	0
-1	59.399999999999999	1	-1	0	0	0	1	0
1.1000000000000001	0.69999999999999996	3	-1	0	0	0	1	0
39.399999999999999	-0.10000000000000001	3	-1	0	0	0	1	0
66.099999999999994	-0.40000000000000002	3	-1	0	0	0	1	0
-8.8000000000000007	49.399999999999999	4	-1	0	0	0	1	0
-32.321023553303057	38.381654946951272	4	-1	0	0	0	1	0
-47.181654946951262	17.078976446696945	4	-1	0	0	0	1	0
-49.399999999999999	-8.7999999999999972	4	-1	0	0	0	1	0
-38.381654946951272	-32.32102355330305	4	-1	0	0	0	1	0
-17.078976446696934	-47.181654946951269	4	-1	0	0	0	1	0
8.7999999999999954	-49.399999999999999	4	-1	0	0	0	1	0
32.321023553303064	-38.381654946951265	4	-1	0	0	0	1	0
47.181654946951262	-17.078976446696963	4	-1	0	0	0	1	0
49.399999999999999	8.7999999999999918	4	-1	0	0	0	1	0
38.381654946951265	32.321023553303064	4	-1	0	0	0	1	0
17.078976446696963	47.181654946951262	4	-1	0	0	0	1	0
-17.5	47.5	4	-1	0	0	0	1	0
-38.905444566227672	32.386206679760839	4	-1	0	0	0	1	0
-49.886206679760832	8.594555433772328	4	-1	0	0	0	1	0
-47.5	-17.499999999999996	4	-1	0	0	0	1	0
-32.386206679760846	-38.905444566227665	4	-1	0	0	0	1	0
-8.5945554337723191	-49.886206679760839	4	-1	0	0	0	1	0
17.499999999999993	-47.5	4	-1	0	0	0	1	0
38.905444566227679	-32.386206679760832	4	-1	0	0	0	1	0
49.886206679760832	-8.5945554337723493	4	-1	0	0	0	1	0
47.5	17.499999999999993	4	-1	0	0	0	1	0
32.386206679760832	38.905444566227679	4	-1	0	0	0	1	0
8.5945554337723493	49.886206679760832	4	-1	0	0	0	1	0
-0.29999999999999999	39.299999999999997	2	-1	0	90	0	1	0
-37.469226188712014	11.859050924046887	2	-1	0	162	0	1	0
-22.857255316781714	-31.97070345462317	2	-1	0	234	0	1	0
23.342665513406672	-31.618032303247691	2	-1	0	306	0	1	0
37.28381599208705	12.429684833823972	2	-1	0	378	0	1	0
-23.800000000000001	31.300000000000001	2	-1	0	-54	0	1	0
-37.122673426162052	-12.962913163888798	2	-1	0	18	0	1	0
0.85692606936933657	-39.311520928496719	2	-1	0	90	0	1	0
37.652282862878153	-11.332942919374998	2	-1	0	162	0	1	0
22.413464493914567	32.307377011760508	2	-1	0	234	0	1	0
134.66281359878391	26.428056789656324	5	-1	0	0	0	1	0
128.72926830301128	52.575824393200676	6	-1	0	0	0	1	0
117.6309923528522	77.395794699169514	7	-1	0	0	0	1	0
101.66486748367142	99.864867483671404	8	-1	0	0	0	1	0
81.33085110466385	119.02633007293088	9	-1	0	0	0	1	0
57.317129254358768	134.03020638989304	10	-1	0	0	0	1	0
30.47725311218025	144.17028709655276	11	-1	0	0	0	1	0
